Program Version,EnergyPlus, Version 8.2.0-e53a815bb2, YMD=2015.08.14 15:55,IDD_Version 8.2.0
   ** Warning ** Timestep: Requested number (1) is less than the suggested minimum of 4.
   **   ~~~   ** Please see entry for Timestep in Input/Output Reference for discussion of considerations.
   ** Warning ** ProcessScheduleInput: Schedule:Compact="VENTILATIONSCHEDULE", Schedule Type Limits Name="FRACTION" not found -- will not be validated
   ** Warning ** CheckConvexity: Surface="SHADINGB3429W10572", Collinear points have been removed.
   ** Warning ** CheckConvexity: Surface="SHADINGB3429W10574", Collinear points have been removed.
   ** Warning ** CheckConvexity: Surface="SHADINGB2896W8460", Collinear points have been removed.
   ** Warning ** GetHTSurfaceData: Surfaces with interface to Ground found but no "Ground Temperatures" were input.
   **   ~~~   ** Found first in surface=FLOOR3563
   **   ~~~   ** Defaults, constant throughout the year of (18.0) will be used.
   ** Warning ** CalcSurfaceCentroid: 634 Surfaces have the Z coordinate < 0.
   **   ~~~   ** ...in any calculations, Wind Speed will be 0.0 for these surfaces.
   **   ~~~   ** ...in any calculations, Outside temperatures will be the outside temperature + 9.750E-003 for these surfaces.
   **   ~~~   ** ...that is, these surfaces will have conditions as though at ground level.
   ** Warning ** GetSurfaceData: There are 4 coincident/collinear vertices; These have been deleted unless the deletion would bring the number of surface sides < 3.
   **   ~~~   ** For explicit details on each problem surface, use Output:Diagnostics,DisplayExtraWarnings;
   ** Warning ** GetPurchasedAir: ZoneHVAC:IdealLoadsAirSystem="ZONE11466ZONEHVAC:IDEALLOADSAIRSYSTEM blank field
   **   ~~~   ** Outdoor Air Inlet Node Name is blank, but there is outdoor air requested for this system.
   **   ~~~   ** Creating node name =ZONE11466ZONEHVAC:IDEALLOADSAIRSYSTEM OUTDOOR AIR INLET NODE
   ** Warning ** GetPurchasedAir: ZoneHVAC:IdealLoadsAirSystem="ZONE11466ZONEHVAC:IDEALLOADSAIRSYSTEM missing data
   **   ~~~   ** ZONE11466ZONEHVAC:IDEALLOADSAIRSYSTEM OUTDOOR AIR INLET NODE does not appear in an OutdoorAir:NodeList or as an OutdoorAir:Node.
   **   ~~~   ** Adding OutdoorAir:Node=ZONE11466ZONEHVAC:IDEALLOADSAIRSYSTEM OUTDOOR AIR INLET NODE
   ************* Testing Individual Branch Integrity
   ************* All Branches passed integrity testing
   ************* Testing Individual Supply Air Path Integrity
   ************* All Supply Air Paths passed integrity testing
   ************* Testing Individual Return Air Path Integrity
   ************* All Return Air Paths passed integrity testing
   ************* No node connection errors were found.
   ************* Beginning Simulation
   ************* Simulation Error Summary *************
   ************* There are 1 unused schedules in input.
   ************* Use Output:Diagnostics,DisplayUnusedSchedules; to see them.
   *************
   ************* ===== Recurring Surface Error Summary =====
   ************* The following surface error messages occurred.
   *************
   ************* Too many figures [>=15000] in shadow overlap errors occurring...
   ************* These occur throughout the year and may occur several times for the same surfaces. You may be able to reduce them by adding OutputDiagnostics,DoNotMirrorDetachedShading;
   *************
   ** Warning ** Too many figures [>=15000] in a shadow overlap
   **   ~~~   ** Overlapping figure=SHADINGB4134W11807, Surface Class=[Detached Shading:Building]
   **   ~~~   **   This error occurred 12 times.
   **   ~~~   ** Figure being Overlapped=Mir-SHADINGB123W2767, Surface Class=[Detached Shading:Building]
   **   ~~~   ** Figure being Overlapped=Mir-SHADINGB648W5286, Surface Class=[Detached Shading:Building]
   **   ~~~   ** Figure being Overlapped=SHADINGB648W5260, Surface Class=[Detached Shading:Building]
   **   ~~~   ** Figure being Overlapped=SHADINGB797W5433, Surface Class=[Detached Shading:Building]
   **   ~~~   ** Figure being Overlapped=SHADINGB2206W6662, Surface Class=[Detached Shading:Building]
   **   ~~~   ** Figure being Overlapped=Mir-SHADINGB123W2791, Surface Class=[Detached Shading:Building]
   **   ~~~   ** Figure being Overlapped=Mir-SHADINGB3144W3143, Surface Class=[Detached Shading:Building]
   **   ~~~   ** Figure being Overlapped=SHADINGB2206W6937, Surface Class=[Detached Shading:Building]
   **   ~~~   ** Figure being Overlapped=SHADINGB123W2771, Surface Class=[Detached Shading:Building]
   **   ~~~   ** Figure being Overlapped=SHADINGB2206W7263, Surface Class=[Detached Shading:Building]
   **   ~~~   ** Figure being Overlapped=SHADINGB123W2211, Surface Class=[Detached Shading:Building]
   **   ~~~   ** Figure being Overlapped=SHADINGB2808W7466, Surface Class=[Detached Shading:Building]
   *************
   ** Warning ** Too many figures [>=15000] in a shadow overlap
   **   ~~~   ** Overlapping figure=Mir-SHADINGB4134W11807, Surface Class=[Detached Shading:Building]
   **   ~~~   **   This error occurred 11 times.
   **   ~~~   ** Figure being Overlapped=Mir-SHADINGB123W2774, Surface Class=[Detached Shading:Building]
   **   ~~~   ** Figure being Overlapped=Mir-SHADINGB3923W9520, Surface Class=[Detached Shading:Building]
   **   ~~~   ** Figure being Overlapped=SHADINGB2206W7267, Surface Class=[Detached Shading:Building]
   **   ~~~   ** Figure being Overlapped=Mir-SHADINGB123W2792, Surface Class=[Detached Shading:Building]
   **   ~~~   ** Figure being Overlapped=Mir-SHADINGB3923W9531, Surface Class=[Detached Shading:Building]
   **   ~~~   ** Figure being Overlapped=Mir-SHADINGB2808W7793, Surface Class=[Detached Shading:Building]
   **   ~~~   ** Figure being Overlapped=SHADINGB123W2522, Surface Class=[Detached Shading:Building]
   **   ~~~   ** Figure being Overlapped=Mir-SHADINGB3429W10584, Surface Class=[Detached Shading:Building]
   **   ~~~   ** Figure being Overlapped=SHADINGB2206W6935, Surface Class=[Detached Shading:Building]
   **   ~~~   ** Figure being Overlapped=SHADINGB2808W7658, Surface Class=[Detached Shading:Building]
   *************
   ** Warning ** Too many figures [>=15000] in a shadow overlap
   **   ~~~   ** Overlapping figure=Mir-SHADINGB500W4160, Surface Class=[Detached Shading:Building]
   **   ~~~   **   This error occurred 17 times.
   **   ~~~   ** Figure being Overlapped=SHADINGB398W3278, Surface Class=[Detached Shading:Building]
   **   ~~~   ** Figure being Overlapped=Mir-SHADINGB3429W10817, Surface Class=[Detached Shading:Building]
   **   ~~~   ** Figure being Overlapped=SHADINGB3923W9860, Surface Class=[Detached Shading:Building]
   **   ~~~   ** Figure being Overlapped=WALL11448, Surface Class=[Wall]
   **   ~~~   ** Figure being Overlapped=SHADINGB398W2830, Surface Class=[Detached Shading:Building]
   **   ~~~   ** Figure being Overlapped=SHADINGB838W5934, Surface Class=[Detached Shading:Building]
   **   ~~~   ** Figure being Overlapped=SHADINGB3923W9960, Surface Class=[Detached Shading:Building]
   **   ~~~   ** Figure being Overlapped=SHADINGB3923W9962, Surface Class=[Detached Shading:Building]
   **   ~~~   ** Figure being Overlapped=Mir-SHADINGB3923W9321, Surface Class=[Detached Shading:Building]
   **   ~~~   ** Figure being Overlapped=SHADINGB3429W10871, Surface Class=[Detached Shading:Building]
   **   ~~~   ** Figure being Overlapped=Mir-SHADINGB3923W9337, Surface Class=[Detached Shading:Building]
   **   ~~~   ** Figure being Overlapped=SHADINGB3429W11026, Surface Class=[Detached Shading:Building]
   **   ~~~   ** Figure being Overlapped=Mir-SHADINGB3923W9292, Surface Class=[Detached Shading:Building]
   *************
   ** Warning ** Too many figures [>=15000] in a shadow overlap
   **   ~~~   ** Overlapping figure=Mir-SHADINGB500W4161, Surface Class=[Detached Shading:Building]
   **   ~~~   **   This error occurred 12 times.
   **   ~~~   ** Figure being Overlapped=Mir-SHADINGB398W257, Surface Class=[Detached Shading:Building]
   **   ~~~   ** Figure being Overlapped=Mir-SHADINGB3923W9983, Surface Class=[Detached Shading:Building]
   **   ~~~   ** Figure being Overlapped=Mir-SHADINGB3923W9725, Surface Class=[Detached Shading:Building]
   **   ~~~   ** Figure being Overlapped=SHADINGB3429W10874, Surface Class=[Detached Shading:Building]
   **   ~~~   ** Figure being Overlapped=SHADINGB3923W9857, Surface Class=[Detached Shading:Building]
   **   ~~~   ** Figure being Overlapped=Mir-SHADINGB3252W10350, Surface Class=[Detached Shading:Building]
   **   ~~~   ** Figure being Overlapped=Mir-SHADINGB3923W9210, Surface Class=[Detached Shading:Building]
   **   ~~~   ** Figure being Overlapped=Mir-SHADINGB4155W4931, Surface Class=[Detached Shading:Building]
   *************
   ** Warning ** Too many figures [>=15000] in a shadow overlap
   **   ~~~   ** Overlapping figure=SHADINGB3091W8855, Surface Class=[Detached Shading:Building]
   **   ~~~   **   This error occurred 14 times.
   **   ~~~   ** Figure being Overlapped=SHADINGB398W3282, Surface Class=[Detached Shading:Building]
   **   ~~~   ** Figure being Overlapped=WALL3561, Surface Class=[Wall]
   **   ~~~   ** Figure being Overlapped=SHADINGB3923W9786, Surface Class=[Detached Shading:Building]
   **   ~~~   ** Figure being Overlapped=SHADINGB3252W10471, Surface Class=[Detached Shading:Building]
   **   ~~~   ** Figure being Overlapped=SHADINGB4155W4925, Surface Class=[Detached Shading:Building]
   **   ~~~   ** Figure being Overlapped=Mir-SHADINGB838W5876, Surface Class=[Detached Shading:Building]
   **   ~~~   ** Figure being Overlapped=Mir-SHADINGB3923W9241, Surface Class=[Detached Shading:Building]
   *************
   ** Warning ** Too many figures [>=15000] in a shadow overlap
   **   ~~~   ** Overlapping figure=SHADINGB3091W8852, Surface Class=[Detached Shading:Building]
   **   ~~~   **   This error occurred 27 times.
   **   ~~~   ** Figure being Overlapped=SHADINGB398W3280, Surface Class=[Detached Shading:Building]
   **   ~~~   ** Figure being Overlapped=SHADINGB2206W7370, Surface Class=[Detached Shading:Building]
   **   ~~~   ** Figure being Overlapped=SHADINGB3923W9802, Surface Class=[Detached Shading:Building]
   **   ~~~   ** Figure being Overlapped=Mir-SHADINGB3923W9244, Surface Class=[Detached Shading:Building]
   **   ~~~   ** Figure being Overlapped=SHADINGB3923W9475, Surface Class=[Detached Shading:Building]
   **   ~~~   ** Figure being Overlapped=SHADINGB797W5791, Surface Class=[Detached Shading:Building]
   **   ~~~   ** Figure being Overlapped=Mir-SHADINGB838W5876, Surface Class=[Detached Shading:Building]
   **   ~~~   ** Figure being Overlapped=Mir-SHADINGB4155W4804, Surface Class=[Detached Shading:Building]
   **   ~~~   ** Figure being Overlapped=SHADINGB838W5929, Surface Class=[Detached Shading:Building]
   **   ~~~   ** Figure being Overlapped=Mir-SHADINGB3252W10132, Surface Class=[Detached Shading:Building]
   **   ~~~   ** Figure being Overlapped=SHADINGB797W5730, Surface Class=[Detached Shading:Building]
   **   ~~~   ** Figure being Overlapped=Mir-SHADINGB2206W7294, Surface Class=[Detached Shading:Building]
   **   ~~~   ** Figure being Overlapped=SHADINGB2206W7267, Surface Class=[Detached Shading:Building]
   **   ~~~   ** Figure being Overlapped=Mir-SHADINGB3923W9786, Surface Class=[Detached Shading:Building]
   **   ~~~   ** Figure being Overlapped=Mir-SHADINGB3252W10423, Surface Class=[Detached Shading:Building]
   **   ~~~   ** Figure being Overlapped=Mir-SHADINGB4247W4338, Surface Class=[Detached Shading:Building]
   **   ~~~   ** Figure being Overlapped=Mir-SHADINGB797W5422, Surface Class=[Detached Shading:Building]
   **   ~~~   ** Figure being Overlapped=Mir-SHADINGB4226W4567, Surface Class=[Detached Shading:Building]
   **   ~~~   ** Figure being Overlapped=SHADINGB3923W9295, Surface Class=[Detached Shading:Building]
   **   ~~~   ** Figure being Overlapped=SHADINGB3923W9757, Surface Class=[Detached Shading:Building]
   **   ~~~   ** Figure being Overlapped=SHADINGB398W2830, Surface Class=[Detached Shading:Building]
   *************
   ** Warning ** Too many figures [>=15000] in a shadow overlap
   **   ~~~   ** Overlapping figure=Mir-SHADINGB904W4675, Surface Class=[Detached Shading:Building]
   **   ~~~   **   This error occurred 17 times.
   **   ~~~   ** Figure being Overlapped=SHADINGB398W3282, Surface Class=[Detached Shading:Building]
   **   ~~~   ** Figure being Overlapped=SHADINGB398W3361, Surface Class=[Detached Shading:Building]
   **   ~~~   ** Figure being Overlapped=Mir-SHADINGB838W5926, Surface Class=[Detached Shading:Building]
   **   ~~~   ** Figure being Overlapped=SHADINGB4226W4521, Surface Class=[Detached Shading:Building]
   **   ~~~   ** Figure being Overlapped=Mir-SHADINGB4226W4488, Surface Class=[Detached Shading:Building]
   **   ~~~   ** Figure being Overlapped=SHADINGB2808W7660, Surface Class=[Detached Shading:Building]
   **   ~~~   ** Figure being Overlapped=SHADINGB398W311, Surface Class=[Detached Shading:Building]
   **   ~~~   ** Figure being Overlapped=Mir-SHADINGB3923W9530, Surface Class=[Detached Shading:Building]
   **   ~~~   ** Figure being Overlapped=Mir-SHADINGB3923W9522, Surface Class=[Detached Shading:Building]
   **   ~~~   ** Figure being Overlapped=SHADINGB4247W4433, Surface Class=[Detached Shading:Building]
   *************
   ** Warning ** Too many figures [>=15000] in a shadow overlap
   **   ~~~   ** Overlapping figure=Mir-SHADINGB904W4676, Surface Class=[Detached Shading:Building]
   **   ~~~   **   This error occurred 11 times.
   **   ~~~   ** Figure being Overlapped=SHADINGB398W3280, Surface Class=[Detached Shading:Building]
   **   ~~~   ** Figure being Overlapped=Mir-SHADINGB648W5308, Surface Class=[Detached Shading:Building]
   **   ~~~   ** Figure being Overlapped=SHADINGB648W5264, Surface Class=[Detached Shading:Building]
   **   ~~~   ** Figure being Overlapped=SHADINGB3429W10567, Surface Class=[Detached Shading:Building]
   **   ~~~   ** Figure being Overlapped=Mir-SHADINGB3923W9986, Surface Class=[Detached Shading:Building]
   **   ~~~   ** Figure being Overlapped=SHADINGB398W294, Surface Class=[Detached Shading:Building]
   *************
   ** Warning ** Too many figures [>=15000] in a shadow overlap
   **   ~~~   ** Overlapping figure=Mir-SHADINGB123W2518, Surface Class=[Detached Shading:Building]
   **   ~~~   **   This error occurred 15 times.
   **   ~~~   ** Figure being Overlapped=SHADINGB398W3276, Surface Class=[Detached Shading:Building]
   **   ~~~   ** Figure being Overlapped=Mir-SHADINGB838W5948, Surface Class=[Detached Shading:Building]
   **   ~~~   ** Figure being Overlapped=SHADINGB838W5929, Surface Class=[Detached Shading:Building]
   **   ~~~   ** Figure being Overlapped=SHADINGB398W3199, Surface Class=[Detached Shading:Building]
   **   ~~~   ** Figure being Overlapped=Mir-SHADINGB398W2851, Surface Class=[Detached Shading:Building]
   **   ~~~   ** Figure being Overlapped=Mir-SHADINGB3429W10843, Surface Class=[Detached Shading:Building]
   **   ~~~   ** Figure being Overlapped=Mir-SHADINGB4155W4856, Surface Class=[Detached Shading:Building]
   **   ~~~   ** Figure being Overlapped=Mir-SHADINGB3429W11000, Surface Class=[Detached Shading:Building]
   **   ~~~   ** Figure being Overlapped=SHADINGB838W5865, Surface Class=[Detached Shading:Building]
   *************
   ** Warning ** Too many figures [>=15000] in a shadow overlap
   **   ~~~   ** Overlapping figure=SHADINGB123W2517, Surface Class=[Detached Shading:Building]
   **   ~~~   **   This error occurred 15 times.
   **   ~~~   ** Figure being Overlapped=SHADINGB398W3275, Surface Class=[Detached Shading:Building]
   **   ~~~   ** Figure being Overlapped=Mir-SHADINGB398W2853, Surface Class=[Detached Shading:Building]
   **   ~~~   ** Figure being Overlapped=SHADINGB3429W10944, Surface Class=[Detached Shading:Building]
   **   ~~~   ** Figure being Overlapped=SHADINGB2206W7312, Surface Class=[Detached Shading:Building]
   **   ~~~   ** Figure being Overlapped=SHADINGB398W2857, Surface Class=[Detached Shading:Building]
   **   ~~~   ** Figure being Overlapped=SHADINGB838W5866, Surface Class=[Detached Shading:Building]
   **   ~~~   ** Figure being Overlapped=Mir-SHADINGB3429W10874, Surface Class=[Detached Shading:Building]
   **   ~~~   ** Figure being Overlapped=SHADINGB838W5900, Surface Class=[Detached Shading:Building]
   **   ~~~   ** Figure being Overlapped=Mir-SHADINGB3923W9207, Surface Class=[Detached Shading:Building]
   *************
   ** Warning ** Too many figures [>=15000] in a shadow overlap
   **   ~~~   ** Overlapping figure=SHADINGB2863W8335, Surface Class=[Detached Shading:Building]
   **   ~~~   **   This error occurred 14 times.
   **   ~~~   ** Figure being Overlapped=SHADINGB398W3274, Surface Class=[Detached Shading:Building]
   **   ~~~   ** Figure being Overlapped=WALL11436, Surface Class=[Wall]
   **   ~~~   ** Figure being Overlapped=SHADINGB398W3217, Surface Class=[Detached Shading:Building]
   **   ~~~   ** Figure being Overlapped=SHADINGB3923W9621, Surface Class=[Detached Shading:Building]
   **   ~~~   ** Figure being Overlapped=SHADINGB3923W9963, Surface Class=[Detached Shading:Building]
   **   ~~~   ** Figure being Overlapped=SHADINGB3923W9996, Surface Class=[Detached Shading:Building]
   **   ~~~   ** Figure being Overlapped=SHADINGB398W3357, Surface Class=[Detached Shading:Building]
   **   ~~~   ** Figure being Overlapped=Mir-SHADINGB4226W4512, Surface Class=[Detached Shading:Building]
   **   ~~~   ** Figure being Overlapped=Mir-SHADINGB3923W9984, Surface Class=[Detached Shading:Building]
   **   ~~~   ** Figure being Overlapped=Mir-SHADINGB3923W9980, Surface Class=[Detached Shading:Building]
   *************
   ** Warning ** Too many figures [>=15000] in a shadow overlap
   **   ~~~   ** Overlapping figure=Mir-SHADINGB2863W8335, Surface Class=[Detached Shading:Building]
   **   ~~~   **   This error occurred 14 times.
   **   ~~~   ** Figure being Overlapped=SHADINGB398W3272, Surface Class=[Detached Shading:Building]
   **   ~~~   ** Figure being Overlapped=Mir-SHADINGB4247W4385, Surface Class=[Detached Shading:Building]
   **   ~~~   ** Figure being Overlapped=SHADINGB3429W10596, Surface Class=[Detached Shading:Building]
   **   ~~~   ** Figure being Overlapped=Mir-SHADINGB3923W9970, Surface Class=[Detached Shading:Building]
   **   ~~~   ** Figure being Overlapped=WALL11434, Surface Class=[Wall]
   **   ~~~   ** Figure being Overlapped=SHADINGB3923W9997, Surface Class=[Detached Shading:Building]
   **   ~~~   ** Figure being Overlapped=SHADINGB398W236, Surface Class=[Detached Shading:Building]
   **   ~~~   ** Figure being Overlapped=Mir-SHADINGB4226W4518, Surface Class=[Detached Shading:Building]
   **   ~~~   ** Figure being Overlapped=Mir-SHADINGB3923W9983, Surface Class=[Detached Shading:Building]
   *************
   ** Warning ** Too many figures [>=15000] in a shadow overlap
   **   ~~~   ** Overlapping figure=SHADINGB1173W6106, Surface Class=[Detached Shading:Building]
   **   ~~~   **   This error occurred 8 times.
   **   ~~~   ** Figure being Overlapped=Mir-SHADINGB123W2767, Surface Class=[Detached Shading:Building]
   **   ~~~   ** Figure being Overlapped=SHADINGB797W5377, Surface Class=[Detached Shading:Building]
   **   ~~~   ** Figure being Overlapped=SHADINGB2206W7282, Surface Class=[Detached Shading:Building]
   **   ~~~   ** Figure being Overlapped=SHADINGB4226W4518, Surface Class=[Detached Shading:Building]
   **   ~~~   ** Figure being Overlapped=Mir-SHADINGB3144W3131, Surface Class=[Detached Shading:Building]
   **   ~~~   ** Figure being Overlapped=Mir-SHADINGB2206W6758, Surface Class=[Detached Shading:Building]
   **   ~~~   ** Figure being Overlapped=Mir-SHADINGB2808W7791, Surface Class=[Detached Shading:Building]
   *************
   ** Warning ** Too many figures [>=15000] in a shadow overlap
   **   ~~~   ** Overlapping figure=Mir-SHADINGB1173W6106, Surface Class=[Detached Shading:Building]
   **   ~~~   **   This error occurred 7 times.
   **   ~~~   ** Figure being Overlapped=Mir-SHADINGB123W2774, Surface Class=[Detached Shading:Building]
   **   ~~~   ** Figure being Overlapped=SHADINGB123W2239, Surface Class=[Detached Shading:Building]
   **   ~~~   ** Figure being Overlapped=Mir-SHADINGB3144W9112, Surface Class=[Detached Shading:Building]
   **   ~~~   ** Figure being Overlapped=SHADINGB123W2766, Surface Class=[Detached Shading:Building]
   **   ~~~   ** Figure being Overlapped=SHADINGB123W2768, Surface Class=[Detached Shading:Building]
   **   ~~~   ** Figure being Overlapped=Mir-SHADINGB123W2263, Surface Class=[Detached Shading:Building]
   *************
   ** Warning ** Too many figures [>=15000] in a shadow overlap
   **   ~~~   ** Overlapping figure=Mir-SHADINGB3157W10028, Surface Class=[Detached Shading:Building]
   **   ~~~   **   This error occurred 10 times.
   **   ~~~   ** Figure being Overlapped=Mir-SHADINGB2206W7264, Surface Class=[Detached Shading:Building]
   **   ~~~   ** Figure being Overlapped=Mir-SHADINGB2206W6664, Surface Class=[Detached Shading:Building]
   **   ~~~   ** Figure being Overlapped=Mir-SHADINGB3923W9216, Surface Class=[Detached Shading:Building]
   **   ~~~   ** Figure being Overlapped=Mir-SHADINGB4205W4964, Surface Class=[Detached Shading:Building]
   **   ~~~   ** Figure being Overlapped=SHADINGB3429W10952, Surface Class=[Detached Shading:Building]
   **   ~~~   ** Figure being Overlapped=SHADINGB2206W6709, Surface Class=[Detached Shading:Building]
   **   ~~~   ** Figure being Overlapped=Mir-SHADINGB398W232, Surface Class=[Detached Shading:Building]
   **   ~~~   ** Figure being Overlapped=Mir-SHADINGB4226W4514, Surface Class=[Detached Shading:Building]
   **   ~~~   ** Figure being Overlapped=SHADINGB838W5899, Surface Class=[Detached Shading:Building]
   **   ~~~   ** Figure being Overlapped=SHADINGB398W2857, Surface Class=[Detached Shading:Building]
   *************
   ** Warning ** Too many figures [>=15000] in a shadow overlap
   **   ~~~   ** Overlapping figure=SHADINGB3157W10041, Surface Class=[Detached Shading:Building]
   **   ~~~   **   This error occurred 11 times.
   **   ~~~   ** Figure being Overlapped=Mir-SHADINGB2206W7262, Surface Class=[Detached Shading:Building]
   **   ~~~   ** Figure being Overlapped=SHADINGB3923W9691, Surface Class=[Detached Shading:Building]
   **   ~~~   ** Figure being Overlapped=Mir-SHADINGB4205W5013, Surface Class=[Detached Shading:Building]
   **   ~~~   ** Figure being Overlapped=SHADINGB2206W6708, Surface Class=[Detached Shading:Building]
   **   ~~~   ** Figure being Overlapped=Mir-SHADINGB398W228, Surface Class=[Detached Shading:Building]
   **   ~~~   ** Figure being Overlapped=SHADINGB3429W3383, Surface Class=[Detached Shading:Building]
   **   ~~~   ** Figure being Overlapped=Mir-SHADINGB4226W4512, Surface Class=[Detached Shading:Building]
   **   ~~~   ** Figure being Overlapped=SHADINGB398W2855, Surface Class=[Detached Shading:Building]
   **   ~~~   ** Figure being Overlapped=Mir-SHADINGB838W5914, Surface Class=[Detached Shading:Building]
   **   ~~~   ** Figure being Overlapped=Mir-SHADINGB3923W9210, Surface Class=[Detached Shading:Building]
   **   ~~~   ** Figure being Overlapped=Mir-SHADINGB3923W9247, Surface Class=[Detached Shading:Building]
   *************
   ** Warning ** Too many figures [>=15000] in a shadow overlap
   **   ~~~   ** Overlapping figure=SHADINGB1173W6527, Surface Class=[Detached Shading:Building]
   **   ~~~   **   This error occurred 8 times.
   **   ~~~   ** Figure being Overlapped=Mir-SHADINGB2206W7264, Surface Class=[Detached Shading:Building]
   **   ~~~   ** Figure being Overlapped=Mir-SHADINGB123W2731, Surface Class=[Detached Shading:Building]
   **   ~~~   ** Figure being Overlapped=SHADINGB123W2766, Surface Class=[Detached Shading:Building]
   **   ~~~   ** Figure being Overlapped=Mir-SHADINGB500W4220, Surface Class=[Detached Shading:Building]
   **   ~~~   ** Figure being Overlapped=SHADINGB2808W7943, Surface Class=[Detached Shading:Building]
   *************
   ** Warning ** Too many figures [>=15000] in a shadow overlap
   **   ~~~   ** Overlapping figure=Mir-SHADINGB1173W6527, Surface Class=[Detached Shading:Building]
   **   ~~~   **   This error occurred 7 times.
   **   ~~~   ** Figure being Overlapped=Mir-SHADINGB2206W7262, Surface Class=[Detached Shading:Building]
   **   ~~~   ** Figure being Overlapped=SHADINGB123W2765, Surface Class=[Detached Shading:Building]
   **   ~~~   ** Figure being Overlapped=SHADINGB3144W9135, Surface Class=[Detached Shading:Building]
   **   ~~~   ** Figure being Overlapped=SHADINGB3923W9399, Surface Class=[Detached Shading:Building]
   *************
   ** Warning ** Too many figures [>=15000] in a shadow overlap
   **   ~~~   ** Overlapping figure=Mir-SHADINGB1173W6107, Surface Class=[Detached Shading:Building]
   **   ~~~   **   This error occurred 12 times.
   **   ~~~   ** Figure being Overlapped=SHADINGB2206W6801, Surface Class=[Detached Shading:Building]
   **   ~~~   ** Figure being Overlapped=Mir-SHADINGB2206W7279, Surface Class=[Detached Shading:Building]
   **   ~~~   ** Figure being Overlapped=SHADINGB123W2773, Surface Class=[Detached Shading:Building]
   **   ~~~   ** Figure being Overlapped=SHADINGB2808W7569, Surface Class=[Detached Shading:Building]
   **   ~~~   ** Figure being Overlapped=Mir-SHADINGB123W2774, Surface Class=[Detached Shading:Building]
   **   ~~~   ** Figure being Overlapped=Mir-SHADINGB2206W7278, Surface Class=[Detached Shading:Building]
   **   ~~~   ** Figure being Overlapped=Mir-SHADINGB500W4090, Surface Class=[Detached Shading:Building]
   **   ~~~   ** Figure being Overlapped=SHADINGB123W2245, Surface Class=[Detached Shading:Building]
   **   ~~~   ** Figure being Overlapped=Mir-SHADINGB797W5421, Surface Class=[Detached Shading:Building]
   *************
   ** Warning ** Too many figures [>=15000] in a shadow overlap
   **   ~~~   ** Overlapping figure=SHADINGB1173W6122, Surface Class=[Detached Shading:Building]
   **   ~~~   **   This error occurred 11 times.
   **   ~~~   ** Figure being Overlapped=SHADINGB2206W6802, Surface Class=[Detached Shading:Building]
   **   ~~~   ** Figure being Overlapped=Mir-SHADINGB2206W6681, Surface Class=[Detached Shading:Building]
   **   ~~~   ** Figure being Overlapped=SHADINGB123W2772, Surface Class=[Detached Shading:Building]
   **   ~~~   ** Figure being Overlapped=Mir-SHADINGB123W2771, Surface Class=[Detached Shading:Building]
   **   ~~~   ** Figure being Overlapped=SHADINGB2206W7307, Surface Class=[Detached Shading:Building]
   **   ~~~   ** Figure being Overlapped=SHADINGB500W4174, Surface Class=[Detached Shading:Building]
   **   ~~~   ** Figure being Overlapped=Mir-SHADINGB123W2791, Surface Class=[Detached Shading:Building]
   *************
   ** Warning ** Too many figures [>=15000] in a shadow overlap
   **   ~~~   ** Overlapping figure=SHADINGB4134W11744, Surface Class=[Detached Shading:Building]
   **   ~~~   **   This error occurred 14 times.
   **   ~~~   ** Figure being Overlapped=SHADINGB123W2726, Surface Class=[Detached Shading:Building]
   **   ~~~   ** Figure being Overlapped=SHADINGB123W2361, Surface Class=[Detached Shading:Building]
   **   ~~~   ** Figure being Overlapped=Mir-SHADINGB4226W4622, Surface Class=[Detached Shading:Building]
   **   ~~~   ** Figure being Overlapped=Mir-SHADINGB2808W7437, Surface Class=[Detached Shading:Building]
   **   ~~~   ** Figure being Overlapped=Mir-SHADINGB648W5241, Surface Class=[Detached Shading:Building]
   **   ~~~   ** Figure being Overlapped=SHADINGB398W3522, Surface Class=[Detached Shading:Building]
   **   ~~~   ** Figure being Overlapped=Mir-SHADINGB2808W7791, Surface Class=[Detached Shading:Building]
   **   ~~~   ** Figure being Overlapped=SHADINGB2206W6802, Surface Class=[Detached Shading:Building]
   **   ~~~   ** Figure being Overlapped=SHADINGB123W2744, Surface Class=[Detached Shading:Building]
   **   ~~~   ** Figure being Overlapped=SHADINGB3144W9170, Surface Class=[Detached Shading:Building]
   **   ~~~   ** Figure being Overlapped=SHADINGB3429W10950, Surface Class=[Detached Shading:Building]
   **   ~~~   ** Figure being Overlapped=Mir-SHADINGB123W2730, Surface Class=[Detached Shading:Building]
   **   ~~~   ** Figure being Overlapped=Mir-SHADINGB3923W9323, Surface Class=[Detached Shading:Building]
   *************
   ** Warning ** Too many figures [>=15000] in a shadow overlap
   **   ~~~   ** Overlapping figure=Mir-SHADINGB4134W11744, Surface Class=[Detached Shading:Building]
   **   ~~~   **   This error occurred 13 times.
   **   ~~~   ** Figure being Overlapped=Mir-SHADINGB123W2184, Surface Class=[Detached Shading:Building]
   **   ~~~   ** Figure being Overlapped=SHADINGB123W2362, Surface Class=[Detached Shading:Building]
   **   ~~~   ** Figure being Overlapped=Mir-SHADINGB2808W7436, Surface Class=[Detached Shading:Building]
   **   ~~~   ** Figure being Overlapped=Mir-SHADINGB398W3495, Surface Class=[Detached Shading:Building]
   **   ~~~   ** Figure being Overlapped=SHADINGB123W2236, Surface Class=[Detached Shading:Building]
   **   ~~~   ** Figure being Overlapped=SHADINGB2206W6799, Surface Class=[Detached Shading:Building]
   **   ~~~   ** Figure being Overlapped=Mir-SHADINGB3144W9147, Surface Class=[Detached Shading:Building]
   **   ~~~   ** Figure being Overlapped=Mir-SHADINGB3144W9148, Surface Class=[Detached Shading:Building]
   **   ~~~   ** Figure being Overlapped=SHADINGB3144W9169, Surface Class=[Detached Shading:Building]
   **   ~~~   ** Figure being Overlapped=Mir-SHADINGB4205W4959, Surface Class=[Detached Shading:Building]
   **   ~~~   ** Figure being Overlapped=Mir-SHADINGB3923W9326, Surface Class=[Detached Shading:Building]
   *************
   ** Warning ** Too many figures [>=15000] in a shadow overlap
   **   ~~~   ** Overlapping figure=SHADINGB479W3709, Surface Class=[Detached Shading:Building]
   **   ~~~   **   This error occurred 9 times.
   **   ~~~   ** Figure being Overlapped=SHADINGB2206W6800, Surface Class=[Detached Shading:Building]
   **   ~~~   ** Figure being Overlapped=Mir-SHADINGB797W5420, Surface Class=[Detached Shading:Building]
   **   ~~~   ** Figure being Overlapped=Mir-SHADINGB398W3079, Surface Class=[Detached Shading:Building]
   **   ~~~   ** Figure being Overlapped=Mir-SHADINGB3923W9544, Surface Class=[Detached Shading:Building]
   **   ~~~   ** Figure being Overlapped=SHADINGB398W2857, Surface Class=[Detached Shading:Building]
   **   ~~~   ** Figure being Overlapped=SHADINGB648W5263, Surface Class=[Detached Shading:Building]
   **   ~~~   ** Figure being Overlapped=SHADINGB797W5730, Surface Class=[Detached Shading:Building]
   **   ~~~   ** Figure being Overlapped=SHADINGB838W5926, Surface Class=[Detached Shading:Building]
   **   ~~~   ** Figure being Overlapped=SHADINGB3252W10520, Surface Class=[Detached Shading:Building]
   *************
   ** Warning ** Too many figures [>=15000] in a shadow overlap
   **   ~~~   ** Overlapping figure=Mir-SHADINGB479W3709, Surface Class=[Detached Shading:Building]
   **   ~~~   **   This error occurred 7 times.
   **   ~~~   ** Figure being Overlapped=SHADINGB2206W6797, Surface Class=[Detached Shading:Building]
   **   ~~~   ** Figure being Overlapped=Mir-SHADINGB3923W9546, Surface Class=[Detached Shading:Building]
   **   ~~~   ** Figure being Overlapped=Mir-SHADINGB2808W7656, Surface Class=[Detached Shading:Building]
   **   ~~~   ** Figure being Overlapped=SHADINGB648W5264, Surface Class=[Detached Shading:Building]
   **   ~~~   ** Figure being Overlapped=SHADINGB3923W9709, Surface Class=[Detached Shading:Building]
   **   ~~~   ** Figure being Overlapped=SHADINGB3252W10521, Surface Class=[Detached Shading:Building]
   *************
   ** Warning ** Too many figures [>=15000] in a shadow overlap
   **   ~~~   ** Overlapping figure=SHADINGB1173W6076, Surface Class=[Detached Shading:Building]
   **   ~~~   **   This error occurred 7 times.
   **   ~~~   ** Figure being Overlapped=Mir-SHADINGB2206W7264, Surface Class=[Detached Shading:Building]
   **   ~~~   ** Figure being Overlapped=Mir-SHADINGB123W2382, Surface Class=[Detached Shading:Building]
   **   ~~~   ** Figure being Overlapped=Mir-SHADINGB123W2285, Surface Class=[Detached Shading:Building]
   **   ~~~   ** Figure being Overlapped=SHADINGB123W2240, Surface Class=[Detached Shading:Building]
   **   ~~~   ** Figure being Overlapped=Mir-SHADINGB4205W5087, Surface Class=[Detached Shading:Building]
   **   ~~~   ** Figure being Overlapped=Mir-SHADINGB123W2335, Surface Class=[Detached Shading:Building]
   **   ~~~   ** Figure being Overlapped=Mir-SHADINGB3429W10765, Surface Class=[Detached Shading:Building]
   *************
   ** Warning ** Too many figures [>=15000] in a shadow overlap
   **   ~~~   ** Overlapping figure=Mir-SHADINGB1173W6076, Surface Class=[Detached Shading:Building]
   **   ~~~   **   This error occurred 5 times.
   **   ~~~   ** Figure being Overlapped=SHADINGB2206W6661, Surface Class=[Detached Shading:Building]
   **   ~~~   ** Figure being Overlapped=SHADINGB123W2237, Surface Class=[Detached Shading:Building]
   **   ~~~   ** Figure being Overlapped=Mir-SHADINGB3429W10764, Surface Class=[Detached Shading:Building]
   **   ~~~   ** Figure being Overlapped=SHADINGB123W2287, Surface Class=[Detached Shading:Building]
   **   ~~~   ** Figure being Overlapped=Mir-SHADINGB2808W7792, Surface Class=[Detached Shading:Building]
   *************
   ** Warning ** Too many figures [>=15000] in a shadow overlap
   **   ~~~   ** Overlapping figure=Mir-SHADINGB4134W11622, Surface Class=[Detached Shading:Building]
   **   ~~~   **   This error occurred 15 times.
   **   ~~~   ** Figure being Overlapped=Mir-SHADINGB123W2766, Surface Class=[Detached Shading:Building]
   **   ~~~   ** Figure being Overlapped=SHADINGB2206W6904, Surface Class=[Detached Shading:Building]
   **   ~~~   ** Figure being Overlapped=Mir-SHADINGB2206W7265, Surface Class=[Detached Shading:Building]
   **   ~~~   ** Figure being Overlapped=Mir-SHADINGB3252W10490, Surface Class=[Detached Shading:Building]
   **   ~~~   ** Figure being Overlapped=Mir-SHADINGB3923W9247, Surface Class=[Detached Shading:Building]
   **   ~~~   ** Figure being Overlapped=SHADINGB3923W9787, Surface Class=[Detached Shading:Building]
   **   ~~~   ** Figure being Overlapped=SHADINGB123W2768, Surface Class=[Detached Shading:Building]
   **   ~~~   ** Figure being Overlapped=SHADINGB797W5775, Surface Class=[Detached Shading:Building]
   **   ~~~   ** Figure being Overlapped=SHADINGB500W4196, Surface Class=[Detached Shading:Building]
   **   ~~~   ** Figure being Overlapped=Mir-SHADINGB2206W7087, Surface Class=[Detached Shading:Building]
   *************
   ** Warning ** Too many figures [>=15000] in a shadow overlap
   **   ~~~   ** Overlapping figure=SHADINGB4134W11621, Surface Class=[Detached Shading:Building]
   **   ~~~   **   This error occurred 14 times.
   **   ~~~   ** Figure being Overlapped=Mir-SHADINGB123W2765, Surface Class=[Detached Shading:Building]
   **   ~~~   ** Figure being Overlapped=Mir-SHADINGB2206W7266, Surface Class=[Detached Shading:Building]
   **   ~~~   ** Figure being Overlapped=Mir-SHADINGB3252W10489, Surface Class=[Detached Shading:Building]
   **   ~~~   ** Figure being Overlapped=SHADINGB3923W9797, Surface Class=[Detached Shading:Building]
   **   ~~~   ** Figure being Overlapped=Mir-SHADINGB123W2285, Surface Class=[Detached Shading:Building]
   **   ~~~   ** Figure being Overlapped=Mir-SHADINGB398W3306, Surface Class=[Detached Shading:Building]
   **   ~~~   ** Figure being Overlapped=SHADINGB797W5776, Surface Class=[Detached Shading:Building]
   **   ~~~   ** Figure being Overlapped=SHADINGB500W4070, Surface Class=[Detached Shading:Building]
   **   ~~~   ** Figure being Overlapped=Mir-SHADINGB2206W7088, Surface Class=[Detached Shading:Building]
   *************
   ** Warning ** Too many figures [>=15000] in a shadow overlap
   **   ~~~   ** Overlapping figure=Mir-SHADINGB4134W11642, Surface Class=[Detached Shading:Building]
   **   ~~~   **   This error occurred 10 times.
   **   ~~~   ** Figure being Overlapped=Mir-SHADINGB123W2768, Surface Class=[Detached Shading:Building]
   **   ~~~   ** Figure being Overlapped=Mir-SHADINGB2808W7810, Surface Class=[Detached Shading:Building]
   **   ~~~   ** Figure being Overlapped=Mir-SHADINGB3923W9845, Surface Class=[Detached Shading:Building]
   **   ~~~   ** Figure being Overlapped=SHADINGB2206W7313, Surface Class=[Detached Shading:Building]
   **   ~~~   ** Figure being Overlapped=SHADINGB797W5778, Surface Class=[Detached Shading:Building]
   *************
   ** Warning ** Too many figures [>=15000] in a shadow overlap
   **   ~~~   ** Overlapping figure=SHADINGB4134W11639, Surface Class=[Detached Shading:Building]
   **   ~~~   **   This error occurred 13 times.
   **   ~~~   ** Figure being Overlapped=SHADINGB123W2285, Surface Class=[Detached Shading:Building]
   **   ~~~   ** Figure being Overlapped=Mir-SHADINGB3923W9846, Surface Class=[Detached Shading:Building]
   **   ~~~   ** Figure being Overlapped=SHADINGB2808W7540, Surface Class=[Detached Shading:Building]
   **   ~~~   ** Figure being Overlapped=Mir-SHADINGB123W2288, Surface Class=[Detached Shading:Building]
   **   ~~~   ** Figure being Overlapped=SHADINGB3429W10950, Surface Class=[Detached Shading:Building]
   **   ~~~   ** Figure being Overlapped=SHADINGB2206W7311, Surface Class=[Detached Shading:Building]
   **   ~~~   ** Figure being Overlapped=SHADINGB123W2773, Surface Class=[Detached Shading:Building]
   **   ~~~   ** Figure being Overlapped=SHADINGB2206W6677, Surface Class=[Detached Shading:Building]
   *************
   ** Warning ** Too many figures [>=15000] in a shadow overlap
   **   ~~~   ** Overlapping figure=Mir-SHADINGB1173W6630, Surface Class=[Detached Shading:Building]
   **   ~~~   **   This error occurred 7 times.
   **   ~~~   ** Figure being Overlapped=SHADINGB2206W7373, Surface Class=[Detached Shading:Building]
   **   ~~~   ** Figure being Overlapped=Mir-SHADINGB2206W6813, Surface Class=[Detached Shading:Building]
   **   ~~~   ** Figure being Overlapped=Mir-SHADINGB123W2773, Surface Class=[Detached Shading:Building]
   **   ~~~   ** Figure being Overlapped=Mir-SHADINGB2206W7267, Surface Class=[Detached Shading:Building]
   **   ~~~   ** Figure being Overlapped=Mir-SHADINGB123W2403, Surface Class=[Detached Shading:Building]
   **   ~~~   ** Figure being Overlapped=Mir-SHADINGB3923W9740, Surface Class=[Detached Shading:Building]
   *************
   ** Warning ** Too many figures [>=15000] in a shadow overlap
   **   ~~~   ** Overlapping figure=SHADINGB1173W6087, Surface Class=[Detached Shading:Building]
   **   ~~~   **   This error occurred 5 times.
   **   ~~~   ** Figure being Overlapped=SHADINGB2206W7371, Surface Class=[Detached Shading:Building]
   **   ~~~   ** Figure being Overlapped=Mir-SHADINGB123W2771, Surface Class=[Detached Shading:Building]
   **   ~~~   ** Figure being Overlapped=Mir-SHADINGB123W2406, Surface Class=[Detached Shading:Building]
   **   ~~~   ** Figure being Overlapped=Mir-SHADINGB3923W9308, Surface Class=[Detached Shading:Building]
   *************
   ** Warning ** Too many figures [>=15000] in a shadow overlap
   **   ~~~   ** Overlapping figure=SHADINGB3091W8870, Surface Class=[Detached Shading:Building]
   **   ~~~   **   This error occurred 17 times.
   **   ~~~   ** Figure being Overlapped=SHADINGB2206W6756, Surface Class=[Detached Shading:Building]
   **   ~~~   ** Figure being Overlapped=SHADINGB648W5267, Surface Class=[Detached Shading:Building]
   **   ~~~   ** Figure being Overlapped=SHADINGB3923W9740, Surface Class=[Detached Shading:Building]
   **   ~~~   ** Figure being Overlapped=SHADINGB398W3051, Surface Class=[Detached Shading:Building]
   **   ~~~   ** Figure being Overlapped=Mir-SHADINGB398W3280, Surface Class=[Detached Shading:Building]
   **   ~~~   ** Figure being Overlapped=Mir-SHADINGB4205W4956, Surface Class=[Detached Shading:Building]
   **   ~~~   ** Figure being Overlapped=Mir-SHADINGB2206W7312, Surface Class=[Detached Shading:Building]
   **   ~~~   ** Figure being Overlapped=Mir-SHADINGB3252W10110, Surface Class=[Detached Shading:Building]
   **   ~~~   ** Figure being Overlapped=Mir-SHADINGB797W5611, Surface Class=[Detached Shading:Building]
   **   ~~~   ** Figure being Overlapped=Mir-SHADINGB838W5931, Surface Class=[Detached Shading:Building]
   **   ~~~   ** Figure being Overlapped=SHADINGB797W5455, Surface Class=[Detached Shading:Building]
   **   ~~~   ** Figure being Overlapped=SHADINGB4247W4431, Surface Class=[Detached Shading:Building]
   **   ~~~   ** Figure being Overlapped=SHADINGB3252W10463, Surface Class=[Detached Shading:Building]
   **   ~~~   ** Figure being Overlapped=SHADINGB838W5929, Surface Class=[Detached Shading:Building]
   **   ~~~   ** Figure being Overlapped=SHADINGB398W3376, Surface Class=[Detached Shading:Building]
   *************
   ** Warning ** Too many figures [>=15000] in a shadow overlap
   **   ~~~   ** Overlapping figure=Mir-SHADINGB3091W8870, Surface Class=[Detached Shading:Building]
   **   ~~~   **   This error occurred 17 times.
   **   ~~~   ** Figure being Overlapped=SHADINGB2206W7172, Surface Class=[Detached Shading:Building]
   **   ~~~   ** Figure being Overlapped=Mir-SHADINGB648W584, Surface Class=[Detached Shading:Building]
   **   ~~~   ** Figure being Overlapped=SHADINGB3429W10911, Surface Class=[Detached Shading:Building]
   **   ~~~   ** Figure being Overlapped=Mir-SHADINGB3923W9828, Surface Class=[Detached Shading:Building]
   **   ~~~   ** Figure being Overlapped=SHADINGB398W3049, Surface Class=[Detached Shading:Building]
   **   ~~~   ** Figure being Overlapped=SHADINGB797W5699, Surface Class=[Detached Shading:Building]
   **   ~~~   ** Figure being Overlapped=SHADINGB4247W4427, Surface Class=[Detached Shading:Building]
   **   ~~~   ** Figure being Overlapped=SHADINGB398W257, Surface Class=[Detached Shading:Building]
   **   ~~~   ** Figure being Overlapped=SHADINGB2206W6680, Surface Class=[Detached Shading:Building]
   **   ~~~   ** Figure being Overlapped=Mir-SHADINGB3252W10107, Surface Class=[Detached Shading:Building]
   **   ~~~   ** Figure being Overlapped=SHADINGB838W5814, Surface Class=[Detached Shading:Building]
   **   ~~~   ** Figure being Overlapped=SHADINGB398W3378, Surface Class=[Detached Shading:Building]
   *************
   ** Warning ** Too many figures [>=15000] in a shadow overlap
   **   ~~~   ** Overlapping figure=SHADINGB1173W6626, Surface Class=[Detached Shading:Building]
   **   ~~~   **   This error occurred 8 times.
   **   ~~~   ** Figure being Overlapped=Mir-SHADINGB2206W7265, Surface Class=[Detached Shading:Building]
   **   ~~~   ** Figure being Overlapped=SHADINGB2206W6724, Surface Class=[Detached Shading:Building]
   **   ~~~   ** Figure being Overlapped=SHADINGB4226W4514, Surface Class=[Detached Shading:Building]
   **   ~~~   ** Figure being Overlapped=SHADINGB123W2767, Surface Class=[Detached Shading:Building]
   **   ~~~   ** Figure being Overlapped=SHADINGB123W2290, Surface Class=[Detached Shading:Building]
   **   ~~~   ** Figure being Overlapped=SHADINGB398W3049, Surface Class=[Detached Shading:Building]
   **   ~~~   ** Figure being Overlapped=Mir-SHADINGB2808W7791, Surface Class=[Detached Shading:Building]
   *************
   ** Warning ** Too many figures [>=15000] in a shadow overlap
   **   ~~~   ** Overlapping figure=Mir-SHADINGB1173W6626, Surface Class=[Detached Shading:Building]
   **   ~~~   **   This error occurred 10 times.
   **   ~~~   ** Figure being Overlapped=SHADINGB2206W6664, Surface Class=[Detached Shading:Building]
   **   ~~~   ** Figure being Overlapped=Mir-SHADINGB4205W5030, Surface Class=[Detached Shading:Building]
   **   ~~~   ** Figure being Overlapped=SHADINGB2206W7266, Surface Class=[Detached Shading:Building]
   **   ~~~   ** Figure being Overlapped=SHADINGB4226W4518, Surface Class=[Detached Shading:Building]
   **   ~~~   ** Figure being Overlapped=Mir-SHADINGB123W2387, Surface Class=[Detached Shading:Building]
   **   ~~~   ** Figure being Overlapped=SHADINGB123W2774, Surface Class=[Detached Shading:Building]
   **   ~~~   ** Figure being Overlapped=SHADINGB398W3050, Surface Class=[Detached Shading:Building]
   **   ~~~   ** Figure being Overlapped=SHADINGB123W2773, Surface Class=[Detached Shading:Building]
   **   ~~~   ** Figure being Overlapped=SHADINGB123W2187, Surface Class=[Detached Shading:Building]
   *************
   ** Warning ** Too many figures [>=15000] in a shadow overlap
   **   ~~~   ** Overlapping figure=SHADINGB1173W6117, Surface Class=[Detached Shading:Building]
   **   ~~~   **   This error occurred 7 times.
   **   ~~~   ** Figure being Overlapped=SHADINGB2206W7368, Surface Class=[Detached Shading:Building]
   **   ~~~   ** Figure being Overlapped=Mir-SHADINGB123W2240, Surface Class=[Detached Shading:Building]
   **   ~~~   ** Figure being Overlapped=Mir-SHADINGB2206W7055, Surface Class=[Detached Shading:Building]
   **   ~~~   ** Figure being Overlapped=Mir-SHADINGB123W2791, Surface Class=[Detached Shading:Building]
   **   ~~~   ** Figure being Overlapped=SHADINGB3144W9171, Surface Class=[Detached Shading:Building]
   **   ~~~   ** Figure being Overlapped=SHADINGB123W2287, Surface Class=[Detached Shading:Building]
   *************
   ** Warning ** Too many figures [>=15000] in a shadow overlap
   **   ~~~   ** Overlapping figure=Mir-SHADINGB1173W6117, Surface Class=[Detached Shading:Building]
   **   ~~~   **   This error occurred 7 times.
   **   ~~~   ** Figure being Overlapped=Mir-SHADINGB2206W6818, Surface Class=[Detached Shading:Building]
   **   ~~~   ** Figure being Overlapped=Mir-SHADINGB2206W7056, Surface Class=[Detached Shading:Building]
   **   ~~~   ** Figure being Overlapped=Mir-SHADINGB123W2727, Surface Class=[Detached Shading:Building]
   **   ~~~   ** Figure being Overlapped=Mir-SHADINGB3144W9111, Surface Class=[Detached Shading:Building]
   **   ~~~   ** Figure being Overlapped=SHADINGB123W2290, Surface Class=[Detached Shading:Building]
   **   ~~~   ** Figure being Overlapped=Mir-SHADINGB3923W9545, Surface Class=[Detached Shading:Building]
   *************
   ** Warning ** Too many figures [>=15000] in a shadow overlap
   **   ~~~   ** Overlapping figure=Mir-SHADINGB4134W11706, Surface Class=[Detached Shading:Building]
   **   ~~~   **   This error occurred 8 times.
   **   ~~~   ** Figure being Overlapped=SHADINGB123W2726, Surface Class=[Detached Shading:Building]
   **   ~~~   ** Figure being Overlapped=Mir-SHADINGB2808W7791, Surface Class=[Detached Shading:Building]
   **   ~~~   ** Figure being Overlapped=SHADINGB2808W7537, Surface Class=[Detached Shading:Building]
   **   ~~~   ** Figure being Overlapped=Mir-SHADINGB123W2792, Surface Class=[Detached Shading:Building]
   **   ~~~   ** Figure being Overlapped=Mir-SHADINGB2206W7268, Surface Class=[Detached Shading:Building]
   **   ~~~   ** Figure being Overlapped=SHADINGB3923W9341, Surface Class=[Detached Shading:Building]
   *************
   ** Warning ** Too many figures [>=15000] in a shadow overlap
   **   ~~~   ** Overlapping figure=SHADINGB4134W11705, Surface Class=[Detached Shading:Building]
   **   ~~~   **   This error occurred 10 times.
   **   ~~~   ** Figure being Overlapped=Mir-SHADINGB123W2184, Surface Class=[Detached Shading:Building]
   **   ~~~   ** Figure being Overlapped=Mir-SHADINGB2808W7467, Surface Class=[Detached Shading:Building]
   **   ~~~   ** Figure being Overlapped=SHADINGB123W2771, Surface Class=[Detached Shading:Building]
   **   ~~~   ** Figure being Overlapped=SHADINGB2808W8017, Surface Class=[Detached Shading:Building]
   **   ~~~   ** Figure being Overlapped=Mir-SHADINGB2808W7797, Surface Class=[Detached Shading:Building]
   **   ~~~   ** Figure being Overlapped=Mir-SHADINGB2808W7447, Surface Class=[Detached Shading:Building]
   *************
   ** Warning ** Too many figures [>=15000] in a shadow overlap
   **   ~~~   ** Overlapping figure=Mir-SHADINGB2235W8140, Surface Class=[Detached Shading:Building]
   **   ~~~   **   This error occurred 13 times.
   **   ~~~   ** Figure being Overlapped=Mir-SHADINGB2206W7263, Surface Class=[Detached Shading:Building]
   **   ~~~   ** Figure being Overlapped=Mir-SHADINGB3923W9205, Surface Class=[Detached Shading:Building]
   **   ~~~   ** Figure being Overlapped=SHADINGB797W5436, Surface Class=[Detached Shading:Building]
   **   ~~~   ** Figure being Overlapped=Mir-SHADINGB2808W7793, Surface Class=[Detached Shading:Building]
   **   ~~~   ** Figure being Overlapped=Mir-SHADINGB3923W9952, Surface Class=[Detached Shading:Building]
   **   ~~~   ** Figure being Overlapped=Mir-SHADINGB2206W7266, Surface Class=[Detached Shading:Building]
   **   ~~~   ** Figure being Overlapped=SHADINGB838W5934, Surface Class=[Detached Shading:Building]
   **   ~~~   ** Figure being Overlapped=SHADINGB838W5928, Surface Class=[Detached Shading:Building]
   **   ~~~   ** Figure being Overlapped=Mir-SHADINGB3923W9464, Surface Class=[Detached Shading:Building]
   **   ~~~   ** Figure being Overlapped=Mir-SHADINGB3923W9491, Surface Class=[Detached Shading:Building]
   **   ~~~   ** Figure being Overlapped=Mir-SHADINGB2206W7082, Surface Class=[Detached Shading:Building]
   **   ~~~   ** Figure being Overlapped=SHADINGB398W3324, Surface Class=[Detached Shading:Building]
   *************
   ** Warning ** Too many figures [>=15000] in a shadow overlap
   **   ~~~   ** Overlapping figure=SHADINGB2235W8139, Surface Class=[Detached Shading:Building]
   **   ~~~   **   This error occurred 13 times.
   **   ~~~   ** Figure being Overlapped=SHADINGB2206W6666, Surface Class=[Detached Shading:Building]
   **   ~~~   ** Figure being Overlapped=SHADINGB797W5750, Surface Class=[Detached Shading:Building]
   **   ~~~   ** Figure being Overlapped=Mir-SHADINGB2808W7792, Surface Class=[Detached Shading:Building]
   **   ~~~   ** Figure being Overlapped=Mir-SHADINGB2206W7263, Surface Class=[Detached Shading:Building]
   **   ~~~   ** Figure being Overlapped=SHADINGB838W5933, Surface Class=[Detached Shading:Building]
   **   ~~~   ** Figure being Overlapped=Mir-SHADINGB838W5930, Surface Class=[Detached Shading:Building]
   **   ~~~   ** Figure being Overlapped=Mir-SHADINGB4184W11923, Surface Class=[Detached Shading:Building]
   **   ~~~   ** Figure being Overlapped=SHADINGB3252W10397, Surface Class=[Detached Shading:Building]
   **   ~~~   ** Figure being Overlapped=Mir-SHADINGB4247W4336, Surface Class=[Detached Shading:Building]
   **   ~~~   ** Figure being Overlapped=Mir-SHADINGB3923W9871, Surface Class=[Detached Shading:Building]
   **   ~~~   ** Figure being Overlapped=SHADINGB3923W9474, Surface Class=[Detached Shading:Building]
   **   ~~~   ** Figure being Overlapped=Mir-SHADINGB2206W7070, Surface Class=[Detached Shading:Building]
   *************
   ** Warning ** Too many figures [>=15000] in a shadow overlap
   **   ~~~   ** Overlapping figure=Mir-SHADINGB4134W11643, Surface Class=[Detached Shading:Building]
   **   ~~~   **   This error occurred 14 times.
   **   ~~~   ** Figure being Overlapped=Mir-SHADINGB123W2766, Surface Class=[Detached Shading:Building]
   **   ~~~   ** Figure being Overlapped=SHADINGB3429W10950, Surface Class=[Detached Shading:Building]
   **   ~~~   ** Figure being Overlapped=SHADINGB3923W9366, Surface Class=[Detached Shading:Building]
   **   ~~~   ** Figure being Overlapped=Mir-SHADINGB2834W8205, Surface Class=[Detached Shading:Building]
   **   ~~~   ** Figure being Overlapped=Mir-SHADINGB3923W9518, Surface Class=[Detached Shading:Building]
   **   ~~~   ** Figure being Overlapped=SHADINGB123W2286, Surface Class=[Detached Shading:Building]
   **   ~~~   ** Figure being Overlapped=Mir-SHADINGB123W2383, Surface Class=[Detached Shading:Building]
   **   ~~~   ** Figure being Overlapped=Mir-SHADINGB2206W7265, Surface Class=[Detached Shading:Building]
   **   ~~~   ** Figure being Overlapped=SHADINGB2206W6693, Surface Class=[Detached Shading:Building]
   **   ~~~   ** Figure being Overlapped=SHADINGB838W5933, Surface Class=[Detached Shading:Building]
   **   ~~~   ** Figure being Overlapped=Mir-SHADINGB123W2789, Surface Class=[Detached Shading:Building]
   *************
   ** Warning ** Too many figures [>=15000] in a shadow overlap
   **   ~~~   ** Overlapping figure=SHADINGB4134W11644, Surface Class=[Detached Shading:Building]
   **   ~~~   **   This error occurred 11 times.
   **   ~~~   ** Figure being Overlapped=Mir-SHADINGB123W2765, Surface Class=[Detached Shading:Building]
   **   ~~~   ** Figure being Overlapped=Mir-SHADINGB3923W9522, Surface Class=[Detached Shading:Building]
   **   ~~~   ** Figure being Overlapped=Mir-SHADINGB2834W8206, Surface Class=[Detached Shading:Building]
   **   ~~~   ** Figure being Overlapped=Mir-SHADINGB123W2384, Surface Class=[Detached Shading:Building]
   **   ~~~   ** Figure being Overlapped=Mir-SHADINGB2206W7266, Surface Class=[Detached Shading:Building]
   **   ~~~   ** Figure being Overlapped=SHADINGB838W5846, Surface Class=[Detached Shading:Building]
   *************
   ** Warning ** Too many figures [>=15000] in a shadow overlap
   **   ~~~   ** Overlapping figure=Mir-SHADINGB904W4673, Surface Class=[Detached Shading:Building]
   **   ~~~   **   This error occurred 11 times.
   **   ~~~   ** Figure being Overlapped=Mir-SHADINGB2206W6878, Surface Class=[Detached Shading:Building]
   **   ~~~   ** Figure being Overlapped=Mir-SHADINGB4247W4433, Surface Class=[Detached Shading:Building]
   **   ~~~   ** Figure being Overlapped=SHADINGB2995W8804, Surface Class=[Detached Shading:Building]
   **   ~~~   ** Figure being Overlapped=Mir-SHADINGB648W5308, Surface Class=[Detached Shading:Building]
   **   ~~~   ** Figure being Overlapped=SHADINGB3429W10946, Surface Class=[Detached Shading:Building]
   **   ~~~   ** Figure being Overlapped=Mir-SHADINGB3429W10930, Surface Class=[Detached Shading:Building]
   **   ~~~   ** Figure being Overlapped=SHADINGB648W5262, Surface Class=[Detached Shading:Building]
   **   ~~~   ** Figure being Overlapped=Mir-SHADINGB398W3198, Surface Class=[Detached Shading:Building]
   **   ~~~   ** Figure being Overlapped=Mir-SHADINGB398W3425, Surface Class=[Detached Shading:Building]
   **   ~~~   ** Figure being Overlapped=Mir-SHADINGB838W5850, Surface Class=[Detached Shading:Building]
   *************
   ** Warning ** Too many figures [>=15000] in a shadow overlap
   **   ~~~   ** Overlapping figure=SHADINGB904W4674, Surface Class=[Detached Shading:Building]
   **   ~~~   **   This error occurred 10 times.
   **   ~~~   ** Figure being Overlapped=Mir-SHADINGB2206W6877, Surface Class=[Detached Shading:Building]
   **   ~~~   ** Figure being Overlapped=Mir-SHADINGB2808W7944, Surface Class=[Detached Shading:Building]
   **   ~~~   ** Figure being Overlapped=Mir-SHADINGB648W5307, Surface Class=[Detached Shading:Building]
   **   ~~~   ** Figure being Overlapped=SHADINGB2995W8535, Surface Class=[Detached Shading:Building]
   **   ~~~   ** Figure being Overlapped=SHADINGB648W5259, Surface Class=[Detached Shading:Building]
   **   ~~~   ** Figure being Overlapped=SHADINGB2808W7462, Surface Class=[Detached Shading:Building]
   **   ~~~   ** Figure being Overlapped=Mir-SHADINGB398W3196, Surface Class=[Detached Shading:Building]
   **   ~~~   ** Figure being Overlapped=Mir-SHADINGB838W5847, Surface Class=[Detached Shading:Building]
   **   ~~~   ** Figure being Overlapped=Mir-SHADINGB398W3421, Surface Class=[Detached Shading:Building]
   *************
   ** Warning ** Too many figures [>=15000] in a shadow overlap
   **   ~~~   ** Overlapping figure=SHADINGB4134W11659, Surface Class=[Detached Shading:Building]
   **   ~~~   **   This error occurred 12 times.
   **   ~~~   ** Figure being Overlapped=Mir-SHADINGB123W2387, Surface Class=[Detached Shading:Building]
   **   ~~~   ** Figure being Overlapped=Mir-SHADINGB2808W7797, Surface Class=[Detached Shading:Building]
   **   ~~~   ** Figure being Overlapped=SHADINGB2808W7512, Surface Class=[Detached Shading:Building]
   **   ~~~   ** Figure being Overlapped=SHADINGB2206W6799, Surface Class=[Detached Shading:Building]
   **   ~~~   ** Figure being Overlapped=Mir-SHADINGB123W2517, Surface Class=[Detached Shading:Building]
   **   ~~~   ** Figure being Overlapped=Mir-SHADINGB2206W7283, Surface Class=[Detached Shading:Building]
   **   ~~~   ** Figure being Overlapped=Mir-SHADINGB797W5485, Surface Class=[Detached Shading:Building]
   **   ~~~   ** Figure being Overlapped=SHADINGB123W2205, Surface Class=[Detached Shading:Building]
   **   ~~~   ** Figure being Overlapped=SHADINGB2206W7268, Surface Class=[Detached Shading:Building]
   *************
   ** Warning ** Too many figures [>=15000] in a shadow overlap
   **   ~~~   ** Overlapping figure=Mir-SHADINGB4134W11659, Surface Class=[Detached Shading:Building]
   **   ~~~   **   This error occurred 3 times.
   **   ~~~   ** Figure being Overlapped=Mir-SHADINGB123W2388, Surface Class=[Detached Shading:Building]
   **   ~~~   ** Figure being Overlapped=Mir-SHADINGB123W2520, Surface Class=[Detached Shading:Building]
   **   ~~~   ** Figure being Overlapped=Mir-SHADINGB797W5496, Surface Class=[Detached Shading:Building]
   *************
   ** Warning ** Too many figures [>=15000] in a shadow overlap
   **   ~~~   ** Overlapping figure=SHADINGB4134W11762, Surface Class=[Detached Shading:Building]
   **   ~~~   **   This error occurred 14 times.
   **   ~~~   ** Figure being Overlapped=Mir-SHADINGB2206W7264, Surface Class=[Detached Shading:Building]
   **   ~~~   ** Figure being Overlapped=SHADINGB3923W9559, Surface Class=[Detached Shading:Building]
   **   ~~~   ** Figure being Overlapped=SHADINGB123W2725, Surface Class=[Detached Shading:Building]
   **   ~~~   ** Figure being Overlapped=SHADINGB2206W7189, Surface Class=[Detached Shading:Building]
   **   ~~~   ** Figure being Overlapped=SHADINGB123W2516, Surface Class=[Detached Shading:Building]
   **   ~~~   ** Figure being Overlapped=Mir-SHADINGB4247W4452, Surface Class=[Detached Shading:Building]
   **   ~~~   ** Figure being Overlapped=Mir-SHADINGB3923W9871, Surface Class=[Detached Shading:Building]
   *************
   ** Warning ** Too many figures [>=15000] in a shadow overlap
   **   ~~~   ** Overlapping figure=Mir-SHADINGB4134W11762, Surface Class=[Detached Shading:Building]
   **   ~~~   **   This error occurred 16 times.
   **   ~~~   ** Figure being Overlapped=Mir-SHADINGB2206W7262, Surface Class=[Detached Shading:Building]
   **   ~~~   ** Figure being Overlapped=Mir-SHADINGB123W2188, Surface Class=[Detached Shading:Building]
   **   ~~~   ** Figure being Overlapped=SHADINGB3923W9262, Surface Class=[Detached Shading:Building]
   **   ~~~   ** Figure being Overlapped=SHADINGB123W2239, Surface Class=[Detached Shading:Building]
   **   ~~~   ** Figure being Overlapped=SHADINGB2808W7467, Surface Class=[Detached Shading:Building]
   **   ~~~   ** Figure being Overlapped=Mir-SHADINGB123W2183, Surface Class=[Detached Shading:Building]
   **   ~~~   ** Figure being Overlapped=SHADINGB4226W4486, Surface Class=[Detached Shading:Building]
   **   ~~~   ** Figure being Overlapped=SHADINGB123W2341, Surface Class=[Detached Shading:Building]
   **   ~~~   ** Figure being Overlapped=SHADINGB2808W7658, Surface Class=[Detached Shading:Building]
   **   ~~~   ** Figure being Overlapped=Mir-SHADINGB4247W4437, Surface Class=[Detached Shading:Building]
   **   ~~~   ** Figure being Overlapped=SHADINGB2808W7657, Surface Class=[Detached Shading:Building]
   *************
   ** Warning ** Too many figures [>=15000] in a shadow overlap
   **   ~~~   ** Overlapping figure=SHADINGB4134W11709, Surface Class=[Detached Shading:Building]
   **   ~~~   **   This error occurred 10 times.
   **   ~~~   ** Figure being Overlapped=SHADINGB2206W6753, Surface Class=[Detached Shading:Building]
   **   ~~~   ** Figure being Overlapped=Mir-SHADINGB123W2514, Surface Class=[Detached Shading:Building]
   **   ~~~   ** Figure being Overlapped=SHADINGB4226W4515, Surface Class=[Detached Shading:Building]
   **   ~~~   ** Figure being Overlapped=SHADINGB2206W6831, Surface Class=[Detached Shading:Building]
   **   ~~~   ** Figure being Overlapped=Mir-SHADINGB2808W7596, Surface Class=[Detached Shading:Building]
   **   ~~~   ** Figure being Overlapped=Mir-SHADINGB123W2730, Surface Class=[Detached Shading:Building]
   **   ~~~   ** Figure being Overlapped=SHADINGB2206W6677, Surface Class=[Detached Shading:Building]
   **   ~~~   ** Figure being Overlapped=SHADINGB2206W7283, Surface Class=[Detached Shading:Building]
   **   ~~~   ** Figure being Overlapped=Mir-SHADINGB2808W7792, Surface Class=[Detached Shading:Building]
   *************
   ** Warning ** Too many figures [>=15000] in a shadow overlap
   **   ~~~   ** Overlapping figure=Mir-SHADINGB4134W11709, Surface Class=[Detached Shading:Building]
   **   ~~~   **   This error occurred 15 times.
   **   ~~~   ** Figure being Overlapped=SHADINGB2206W7175, Surface Class=[Detached Shading:Building]
   **   ~~~   ** Figure being Overlapped=Mir-SHADINGB123W2513, Surface Class=[Detached Shading:Building]
   **   ~~~   ** Figure being Overlapped=SHADINGB2808W7587, Surface Class=[Detached Shading:Building]
   **   ~~~   ** Figure being Overlapped=SHADINGB398W3204, Surface Class=[Detached Shading:Building]
   **   ~~~   ** Figure being Overlapped=Mir-SHADINGB500W4090, Surface Class=[Detached Shading:Building]
   **   ~~~   ** Figure being Overlapped=Mir-SHADINGB123W2383, Surface Class=[Detached Shading:Building]
   **   ~~~   ** Figure being Overlapped=SHADINGB3429W10599, Surface Class=[Detached Shading:Building]
   **   ~~~   ** Figure being Overlapped=SHADINGB3429W10595, Surface Class=[Detached Shading:Building]
   **   ~~~   ** Figure being Overlapped=SHADINGB3144W9138, Surface Class=[Detached Shading:Building]
   **   ~~~   ** Figure being Overlapped=Mir-SHADINGB2206W7265, Surface Class=[Detached Shading:Building]
   **   ~~~   ** Figure being Overlapped=Mir-SHADINGB3144W9148, Surface Class=[Detached Shading:Building]
   **   ~~~   ** Figure being Overlapped=Mir-SHADINGB3429W11040, Surface Class=[Detached Shading:Building]
   **   ~~~   ** Figure being Overlapped=SHADINGB3923W9801, Surface Class=[Detached Shading:Building]
   **   ~~~   ** Figure being Overlapped=SHADINGB2206W6667, Surface Class=[Detached Shading:Building]
   **   ~~~   ** Figure being Overlapped=Mir-SHADINGB797W5418, Surface Class=[Detached Shading:Building]
   *************
   ** Warning ** Too many figures [>=15000] in a shadow overlap
   **   ~~~   ** Overlapping figure=SHADINGB4134W11682, Surface Class=[Detached Shading:Building]
   **   ~~~   **   This error occurred 12 times.
   **   ~~~   ** Figure being Overlapped=SHADINGB2206W6753, Surface Class=[Detached Shading:Building]
   **   ~~~   ** Figure being Overlapped=SHADINGB3429W10908, Surface Class=[Detached Shading:Building]
   **   ~~~   ** Figure being Overlapped=SHADINGB2206W6661, Surface Class=[Detached Shading:Building]
   **   ~~~   ** Figure being Overlapped=SHADINGB2206W6800, Surface Class=[Detached Shading:Building]
   **   ~~~   ** Figure being Overlapped=Mir-SHADINGB123W2520, Surface Class=[Detached Shading:Building]
   **   ~~~   ** Figure being Overlapped=SHADINGB398W3384, Surface Class=[Detached Shading:Building]
   **   ~~~   ** Figure being Overlapped=Mir-SHADINGB123W2286, Surface Class=[Detached Shading:Building]
   **   ~~~   ** Figure being Overlapped=SHADINGB123W2332, Surface Class=[Detached Shading:Building]
   **   ~~~   ** Figure being Overlapped=SHADINGB2206W7116, Surface Class=[Detached Shading:Building]
   **   ~~~   ** Figure being Overlapped=SHADINGB797W5433, Surface Class=[Detached Shading:Building]
   *************
   ** Warning ** Too many figures [>=15000] in a shadow overlap
   **   ~~~   ** Overlapping figure=Mir-SHADINGB4134W11682, Surface Class=[Detached Shading:Building]
   **   ~~~   **   This error occurred 13 times.
   **   ~~~   ** Figure being Overlapped=SHADINGB2206W7175, Surface Class=[Detached Shading:Building]
   **   ~~~   ** Figure being Overlapped=Mir-SHADINGB123W2519, Surface Class=[Detached Shading:Building]
   **   ~~~   ** Figure being Overlapped=Mir-SHADINGB3923W9246, Surface Class=[Detached Shading:Building]
   **   ~~~   ** Figure being Overlapped=Mir-SHADINGB797W5627, Surface Class=[Detached Shading:Building]
   **   ~~~   ** Figure being Overlapped=Mir-SHADINGB3252W10490, Surface Class=[Detached Shading:Building]
   **   ~~~   ** Figure being Overlapped=SHADINGB2206W6797, Surface Class=[Detached Shading:Building]
   **   ~~~   ** Figure being Overlapped=Mir-SHADINGB123W2383, Surface Class=[Detached Shading:Building]
   **   ~~~   ** Figure being Overlapped=Mir-SHADINGB2808W7933, Surface Class=[Detached Shading:Building]
   **   ~~~   ** Figure being Overlapped=SHADINGB123W2768, Surface Class=[Detached Shading:Building]
   **   ~~~   ** Figure being Overlapped=SHADINGB2206W6935, Surface Class=[Detached Shading:Building]
   **   ~~~   ** Figure being Overlapped=Mir-SHADINGB123W2791, Surface Class=[Detached Shading:Building]
   **   ~~~   ** Figure being Overlapped=SHADINGB2808W7582, Surface Class=[Detached Shading:Building]
   *************
   ** Warning ** Too many figures [>=15000] in a shadow overlap
   **   ~~~   ** Overlapping figure=SHADINGB4134W11797, Surface Class=[Detached Shading:Building]
   **   ~~~   **   This error occurred 7 times.
   **   ~~~   ** Figure being Overlapped=SHADINGB2206W6753, Surface Class=[Detached Shading:Building]
   **   ~~~   ** Figure being Overlapped=SHADINGB2808W7675, Surface Class=[Detached Shading:Building]
   **   ~~~   ** Figure being Overlapped=SHADINGB2808W7943, Surface Class=[Detached Shading:Building]
   **   ~~~   ** Figure being Overlapped=Mir-SHADINGB2206W7263, Surface Class=[Detached Shading:Building]
   **   ~~~   ** Figure being Overlapped=Mir-SHADINGB500W4120, Surface Class=[Detached Shading:Building]
   **   ~~~   ** Figure being Overlapped=SHADINGB2808W8034, Surface Class=[Detached Shading:Building]
   *************
   ** Warning ** Too many figures [>=15000] in a shadow overlap
   **   ~~~   ** Overlapping figure=Mir-SHADINGB4134W11797, Surface Class=[Detached Shading:Building]
   **   ~~~   **   This error occurred 6 times.
   **   ~~~   ** Figure being Overlapped=SHADINGB2206W7175, Surface Class=[Detached Shading:Building]
   **   ~~~   ** Figure being Overlapped=SHADINGB2206W6951, Surface Class=[Detached Shading:Building]
   **   ~~~   ** Figure being Overlapped=Mir-SHADINGB2206W6666, Surface Class=[Detached Shading:Building]
   **   ~~~   ** Figure being Overlapped=Mir-SHADINGB500W4224, Surface Class=[Detached Shading:Building]
   **   ~~~   ** Figure being Overlapped=SHADINGB2808W7497, Surface Class=[Detached Shading:Building]
   *************
   ** Warning ** Too many figures [>=15000] in a shadow overlap
   **   ~~~   ** Overlapping figure=SHADINGB545W5179, Surface Class=[Detached Shading:Building]
   **   ~~~   **   This error occurred 12 times.
   **   ~~~   ** Figure being Overlapped=SHADINGB2206W6756, Surface Class=[Detached Shading:Building]
   **   ~~~   ** Figure being Overlapped=SHADINGB2206W7116, Surface Class=[Detached Shading:Building]
   **   ~~~   ** Figure being Overlapped=Mir-SHADINGB838W5942, Surface Class=[Detached Shading:Building]
   **   ~~~   ** Figure being Overlapped=SHADINGB648W5263, Surface Class=[Detached Shading:Building]
   **   ~~~   ** Figure being Overlapped=Mir-SHADINGB3923W9785, Surface Class=[Detached Shading:Building]
   **   ~~~   ** Figure being Overlapped=SHADINGB4184W4176, Surface Class=[Detached Shading:Building]
   **   ~~~   ** Figure being Overlapped=Mir-SHADINGB3923W9517, Surface Class=[Detached Shading:Building]
   **   ~~~   ** Figure being Overlapped=Mir-SHADINGB3923W9624, Surface Class=[Detached Shading:Building]
   **   ~~~   ** Figure being Overlapped=SHADINGB398W3552, Surface Class=[Detached Shading:Building]
   **   ~~~   ** Figure being Overlapped=Mir-SHADINGB3923W9847, Surface Class=[Detached Shading:Building]
   *************
   ** Warning ** Too many figures [>=15000] in a shadow overlap
   **   ~~~   ** Overlapping figure=Mir-SHADINGB545W5179, Surface Class=[Detached Shading:Building]
   **   ~~~   **   This error occurred 13 times.
   **   ~~~   ** Figure being Overlapped=SHADINGB2206W7172, Surface Class=[Detached Shading:Building]
   **   ~~~   ** Figure being Overlapped=SHADINGB2206W6803, Surface Class=[Detached Shading:Building]
   **   ~~~   ** Figure being Overlapped=SHADINGB3923W9211, Surface Class=[Detached Shading:Building]
   **   ~~~   ** Figure being Overlapped=SHADINGB838W5933, Surface Class=[Detached Shading:Building]
   **   ~~~   ** Figure being Overlapped=SHADINGB3923W9545, Surface Class=[Detached Shading:Building]
   **   ~~~   ** Figure being Overlapped=SHADINGB3923W9340, Surface Class=[Detached Shading:Building]
   **   ~~~   ** Figure being Overlapped=SHADINGB648W5264, Surface Class=[Detached Shading:Building]
   **   ~~~   ** Figure being Overlapped=SHADINGB2206W6919, Surface Class=[Detached Shading:Building]
   **   ~~~   ** Figure being Overlapped=Mir-SHADINGB3923W9786, Surface Class=[Detached Shading:Building]
   **   ~~~   ** Figure being Overlapped=SHADINGB398W3049, Surface Class=[Detached Shading:Building]
   **   ~~~   ** Figure being Overlapped=Mir-SHADINGB3923W9848, Surface Class=[Detached Shading:Building]
   *************
   ** Warning ** Too many figures [>=15000] in a shadow overlap
   **   ~~~   ** Overlapping figure=SHADINGB3091W8868, Surface Class=[Detached Shading:Building]
   **   ~~~   **   This error occurred 12 times.
   **   ~~~   ** Figure being Overlapped=SHADINGB2206W6756, Surface Class=[Detached Shading:Building]
   **   ~~~   ** Figure being Overlapped=Mir-SHADINGB3923W9588, Surface Class=[Detached Shading:Building]
   **   ~~~   ** Figure being Overlapped=SHADINGB838W5865, Surface Class=[Detached Shading:Building]
   **   ~~~   ** Figure being Overlapped=Mir-SHADINGB3923W9247, Surface Class=[Detached Shading:Building]
   **   ~~~   ** Figure being Overlapped=Mir-SHADINGB2206W7373, Surface Class=[Detached Shading:Building]
   **   ~~~   ** Figure being Overlapped=SHADINGB3923W9722, Surface Class=[Detached Shading:Building]
   **   ~~~   ** Figure being Overlapped=Mir-SHADINGB797W5730, Surface Class=[Detached Shading:Building]
   **   ~~~   ** Figure being Overlapped=Mir-SHADINGB797W5514, Surface Class=[Detached Shading:Building]
   **   ~~~   ** Figure being Overlapped=Mir-SHADINGB398W3304, Surface Class=[Detached Shading:Building]
   *************
   ** Warning ** Too many figures [>=15000] in a shadow overlap
   **   ~~~   ** Overlapping figure=Mir-SHADINGB3091W8868, Surface Class=[Detached Shading:Building]
   **   ~~~   **   This error occurred 7 times.
   **   ~~~   ** Figure being Overlapped=SHADINGB2206W7172, Surface Class=[Detached Shading:Building]
   **   ~~~   ** Figure being Overlapped=Mir-SHADINGB4184W11885, Surface Class=[Detached Shading:Building]
   **   ~~~   ** Figure being Overlapped=SHADINGB838W5927, Surface Class=[Detached Shading:Building]
   **   ~~~   ** Figure being Overlapped=Mir-SHADINGB797W5513, Surface Class=[Detached Shading:Building]
   **   ~~~   ** Figure being Overlapped=Mir-SHADINGB398W3306, Surface Class=[Detached Shading:Building]
   **   ~~~   ** Figure being Overlapped=Mir-SHADINGB3923W9859, Surface Class=[Detached Shading:Building]
   **   ~~~   ** Figure being Overlapped=Mir-SHADINGB3923W9983, Surface Class=[Detached Shading:Building]
   *************
   ** Warning ** Too many figures [>=15000] in a shadow overlap
   **   ~~~   ** Overlapping figure=SHADINGB545W5177, Surface Class=[Detached Shading:Building]
   **   ~~~   **   This error occurred 12 times.
   **   ~~~   ** Figure being Overlapped=Mir-SHADINGB2206W7265, Surface Class=[Detached Shading:Building]
   **   ~~~   ** Figure being Overlapped=Mir-SHADINGB4247W4333, Surface Class=[Detached Shading:Building]
   **   ~~~   ** Figure being Overlapped=SHADINGB797W5508, Surface Class=[Detached Shading:Building]
   **   ~~~   ** Figure being Overlapped=SHADINGB3923W9621, Surface Class=[Detached Shading:Building]
   **   ~~~   ** Figure being Overlapped=SHADINGB2206W6708, Surface Class=[Detached Shading:Building]
   **   ~~~   ** Figure being Overlapped=SHADINGB797W5795, Surface Class=[Detached Shading:Building]
   **   ~~~   ** Figure being Overlapped=SHADINGB3923W9857, Surface Class=[Detached Shading:Building]
   **   ~~~   ** Figure being Overlapped=Mir-SHADINGB3923W9213, Surface Class=[Detached Shading:Building]
   **   ~~~   ** Figure being Overlapped=Mir-SHADINGB4155W4879, Surface Class=[Detached Shading:Building]
   **   ~~~   ** Figure being Overlapped=SHADINGB3923W9452, Surface Class=[Detached Shading:Building]
   **   ~~~   ** Figure being Overlapped=Mir-SHADINGB398W3274, Surface Class=[Detached Shading:Building]
   *************
   ** Warning ** Too many figures [>=15000] in a shadow overlap
   **   ~~~   ** Overlapping figure=Mir-SHADINGB545W5177, Surface Class=[Detached Shading:Building]
   **   ~~~   **   This error occurred 15 times.
   **   ~~~   ** Figure being Overlapped=SHADINGB2206W6664, Surface Class=[Detached Shading:Building]
   **   ~~~   ** Figure being Overlapped=SHADINGB2206W7308, Surface Class=[Detached Shading:Building]
   **   ~~~   ** Figure being Overlapped=SHADINGB3923W9491, Surface Class=[Detached Shading:Building]
   **   ~~~   ** Figure being Overlapped=SHADINGB3923W9476, Surface Class=[Detached Shading:Building]
   **   ~~~   ** Figure being Overlapped=SHADINGB797W5510, Surface Class=[Detached Shading:Building]
   **   ~~~   ** Figure being Overlapped=SHADINGB3923W9306, Surface Class=[Detached Shading:Building]
   **   ~~~   ** Figure being Overlapped=SHADINGB2206W6753, Surface Class=[Detached Shading:Building]
   **   ~~~   ** Figure being Overlapped=SHADINGB3923W9619, Surface Class=[Detached Shading:Building]
   **   ~~~   ** Figure being Overlapped=SHADINGB797W5797, Surface Class=[Detached Shading:Building]
   **   ~~~   ** Figure being Overlapped=Mir-SHADINGB3923W9212, Surface Class=[Detached Shading:Building]
   **   ~~~   ** Figure being Overlapped=SHADINGB398W3577, Surface Class=[Detached Shading:Building]
   **   ~~~   ** Figure being Overlapped=SHADINGB3923W9450, Surface Class=[Detached Shading:Building]
   **   ~~~   ** Figure being Overlapped=Mir-SHADINGB398W3272, Surface Class=[Detached Shading:Building]
   *************
   ** Warning ** Too many figures [>=15000] in a shadow overlap
   **   ~~~   ** Overlapping figure=Mir-SHADINGB3157W10014, Surface Class=[Detached Shading:Building]
   **   ~~~   **   This error occurred 13 times.
   **   ~~~   ** Figure being Overlapped=SHADINGB2206W6756, Surface Class=[Detached Shading:Building]
   **   ~~~   ** Figure being Overlapped=Mir-SHADINGB2206W7264, Surface Class=[Detached Shading:Building]
   **   ~~~   ** Figure being Overlapped=Mir-SHADINGB3923W9489, Surface Class=[Detached Shading:Building]
   **   ~~~   ** Figure being Overlapped=Mir-SHADINGB398W2864, Surface Class=[Detached Shading:Building]
   **   ~~~   ** Figure being Overlapped=Mir-SHADINGB3923W9885, Surface Class=[Detached Shading:Building]
   **   ~~~   ** Figure being Overlapped=SHADINGB3923W9450, Surface Class=[Detached Shading:Building]
   **   ~~~   ** Figure being Overlapped=Mir-SHADINGB3429W10544, Surface Class=[Detached Shading:Building]
   **   ~~~   ** Figure being Overlapped=SHADINGB2206W6829, Surface Class=[Detached Shading:Building]
   **   ~~~   ** Figure being Overlapped=Mir-SHADINGB3923W9403, Surface Class=[Detached Shading:Building]
   **   ~~~   ** Figure being Overlapped=SHADINGB398W247, Surface Class=[Detached Shading:Building]
   **   ~~~   ** Figure being Overlapped=SHADINGB2206W7281, Surface Class=[Detached Shading:Building]
   **   ~~~   ** Figure being Overlapped=SHADINGB2206W7266, Surface Class=[Detached Shading:Building]
   **   ~~~   ** Figure being Overlapped=Mir-SHADINGB398W2920, Surface Class=[Detached Shading:Building]
   *************
   ** Warning ** Too many figures [>=15000] in a shadow overlap
   **   ~~~   ** Overlapping figure=SHADINGB3157W10013, Surface Class=[Detached Shading:Building]
   **   ~~~   **   This error occurred 14 times.
   **   ~~~   ** Figure being Overlapped=SHADINGB2206W7172, Surface Class=[Detached Shading:Building]
   **   ~~~   ** Figure being Overlapped=Mir-SHADINGB2206W7262, Surface Class=[Detached Shading:Building]
   **   ~~~   ** Figure being Overlapped=Mir-SHADINGB3923W9214, Surface Class=[Detached Shading:Building]
   **   ~~~   ** Figure being Overlapped=Mir-SHADINGB398W2860, Surface Class=[Detached Shading:Building]
   **   ~~~   ** Figure being Overlapped=Mir-SHADINGB3923W9886, Surface Class=[Detached Shading:Building]
   **   ~~~   ** Figure being Overlapped=SHADINGB648W5264, Surface Class=[Detached Shading:Building]
   **   ~~~   ** Figure being Overlapped=Mir-SHADINGB648W5302, Surface Class=[Detached Shading:Building]
   **   ~~~   ** Figure being Overlapped=SHADINGB3923W9447, Surface Class=[Detached Shading:Building]
   **   ~~~   ** Figure being Overlapped=SHADINGB3429W11022, Surface Class=[Detached Shading:Building]
   **   ~~~   ** Figure being Overlapped=SHADINGB2206W6830, Surface Class=[Detached Shading:Building]
   **   ~~~   ** Figure being Overlapped=SHADINGB838W5894, Surface Class=[Detached Shading:Building]
   **   ~~~   ** Figure being Overlapped=Mir-SHADINGB3923W9404, Surface Class=[Detached Shading:Building]
   **   ~~~   ** Figure being Overlapped=SHADINGB2206W6682, Surface Class=[Detached Shading:Building]
   *************
   ** Warning ** Too many figures [>=15000] in a shadow overlap
   **   ~~~   ** Overlapping figure=Mir-SHADINGB123W2644, Surface Class=[Detached Shading:Building]
   **   ~~~   **   This error occurred 14 times.
   **   ~~~   ** Figure being Overlapped=Mir-SHADINGB2206W7264, Surface Class=[Detached Shading:Building]
   **   ~~~   ** Figure being Overlapped=Mir-SHADINGB2206W7265, Surface Class=[Detached Shading:Building]
   **   ~~~   ** Figure being Overlapped=SHADINGB838W5814, Surface Class=[Detached Shading:Building]
   **   ~~~   ** Figure being Overlapped=Mir-SHADINGB398W2914, Surface Class=[Detached Shading:Building]
   **   ~~~   ** Figure being Overlapped=Mir-SHADINGB797W5645, Surface Class=[Detached Shading:Building]
   **   ~~~   ** Figure being Overlapped=Mir-SHADINGB3923W9843, Surface Class=[Detached Shading:Building]
   **   ~~~   ** Figure being Overlapped=SHADINGB2206W7055, Surface Class=[Detached Shading:Building]
   **   ~~~   ** Figure being Overlapped=Mir-SHADINGB3429W10548, Surface Class=[Detached Shading:Building]
   **   ~~~   ** Figure being Overlapped=SHADINGB4226W4491, Surface Class=[Detached Shading:Building]
   **   ~~~   ** Figure being Overlapped=SHADINGB398W2864, Surface Class=[Detached Shading:Building]
   **   ~~~   ** Figure being Overlapped=WALL11425, Surface Class=[Wall]
   **   ~~~   ** Figure being Overlapped=SHADINGB3923W9799, Surface Class=[Detached Shading:Building]
   **   ~~~   ** Figure being Overlapped=Mir-SHADINGB398W2962, Surface Class=[Detached Shading:Building]
   *************
   ** Warning ** Too many figures [>=15000] in a shadow overlap
   **   ~~~   ** Overlapping figure=SHADINGB123W2645, Surface Class=[Detached Shading:Building]
   **   ~~~   **   This error occurred 14 times.
   **   ~~~   ** Figure being Overlapped=Mir-SHADINGB2206W7262, Surface Class=[Detached Shading:Building]
   **   ~~~   ** Figure being Overlapped=Mir-SHADINGB2206W7266, Surface Class=[Detached Shading:Building]
   **   ~~~   ** Figure being Overlapped=SHADINGB838W5933, Surface Class=[Detached Shading:Building]
   **   ~~~   ** Figure being Overlapped=Mir-SHADINGB797W5651, Surface Class=[Detached Shading:Building]
   **   ~~~   ** Figure being Overlapped=Mir-SHADINGB3923W9844, Surface Class=[Detached Shading:Building]
[...]
   **   ~~~   **   This error occurred 1 times.
   **   ~~~   ** Figure being Overlapped=WALL11421, Surface Class=[Wall]
   *************
   ** Warning ** Too many figures [>=15000] in a shadow overlap
   **   ~~~   ** Overlapping figure=SHADINGB797W5357, Surface Class=[Detached Shading:Building]
   **   ~~~   **   This error occurred 1 times.
   **   ~~~   ** Figure being Overlapped=SHADINGB398W3048, Surface Class=[Detached Shading:Building]
   *************
   ** Warning ** Too many figures [>=15000] in a shadow overlap
   **   ~~~   ** Overlapping figure=Mir-SHADINGB797W5599, Surface Class=[Detached Shading:Building]
   **   ~~~   **   This error occurred 2 times.
   **   ~~~   ** Figure being Overlapped=Mir-SHADINGB398W3075, Surface Class=[Detached Shading:Building]
   *************
   ** Warning ** Too many figures [>=15000] in a shadow overlap
   **   ~~~   ** Overlapping figure=Mir-SHADINGB797W5733, Surface Class=[Detached Shading:Building]
   **   ~~~   **   This error occurred 1 times.
   **   ~~~   ** Figure being Overlapped=SHADINGB3923W9872, Surface Class=[Detached Shading:Building]
   *************
   ** Warning ** Too many figures [>=15000] in a shadow overlap
   **   ~~~   ** Overlapping figure=SHADINGB797W5734, Surface Class=[Detached Shading:Building]
   **   ~~~   **   This error occurred 1 times.
   **   ~~~   ** Figure being Overlapped=SHADINGB3923W9871, Surface Class=[Detached Shading:Building]
   *************
   ** Warning ** Too many figures [>=15000] in a shadow overlap
   **   ~~~   ** Overlapping figure=SHADINGB2206W7250, Surface Class=[Detached Shading:Building]
   **   ~~~   **   This error occurred 1 times.
   **   ~~~   ** Figure being Overlapped=WALL11424, Surface Class=[Wall]
   *************
   ** Warning ** Too many figures [>=15000] in a shadow overlap
   **   ~~~   ** Overlapping figure=Mir-SHADINGB2206W7250, Surface Class=[Detached Shading:Building]
   **   ~~~   **   This error occurred 1 times.
   **   ~~~   ** Figure being Overlapped=WALL11436, Surface Class=[Wall]
   *************
   ** Warning ** Too many figures [>=15000] in a shadow overlap
   **   ~~~   ** Overlapping figure=Mir-SHADINGB797W5354, Surface Class=[Detached Shading:Building]
   **   ~~~   **   This error occurred 1 times.
   **   ~~~   ** Figure being Overlapped=WALL11434, Surface Class=[Wall]
   *************
   ** Warning ** Too many figures [>=15000] in a shadow overlap
   **   ~~~   ** Overlapping figure=SHADINGB797W5353, Surface Class=[Detached Shading:Building]
   **   ~~~   **   This error occurred 1 times.
   **   ~~~   ** Figure being Overlapped=WALL11432, Surface Class=[Wall]
   *************
   ** Warning ** Too many figures [>=15000] in a shadow overlap
   **   ~~~   ** Overlapping figure=Mir-SHADINGB2206W6949, Surface Class=[Detached Shading:Building]
   **   ~~~   **   This error occurred 1 times.
   **   ~~~   ** Figure being Overlapped=WALL11433, Surface Class=[Wall]
   *************
   ** Warning ** Too many figures [>=15000] in a shadow overlap
   **   ~~~   ** Overlapping figure=SHADINGB2206W6950, Surface Class=[Detached Shading:Building]
   **   ~~~   **   This error occurred 1 times.
   **   ~~~   ** Figure being Overlapped=WALL11434, Surface Class=[Wall]
   *************
   ** Warning ** Too many figures [>=15000] in a shadow overlap
   **   ~~~   ** Overlapping figure=Mir-SHADINGB2206W6783, Surface Class=[Detached Shading:Building]
   **   ~~~   **   This error occurred 1 times.
   **   ~~~   ** Figure being Overlapped=WALL11432, Surface Class=[Wall]
   *************
   ** Warning ** Too many figures [>=15000] in a shadow overlap
   **   ~~~   ** Overlapping figure=SHADINGB2206W6782, Surface Class=[Detached Shading:Building]
   **   ~~~   **   This error occurred 1 times.
   **   ~~~   ** Figure being Overlapped=WALL11421, Surface Class=[Wall]
   *************
   ** Warning ** Too many figures [>=15000] in a shadow overlap
   **   ~~~   ** Overlapping figure=Mir-SHADINGB797W778, Surface Class=[Detached Shading:Building]
   **   ~~~   **   This error occurred 1 times.
   **   ~~~   ** Figure being Overlapped=Mir-SHADINGB3923W9436, Surface Class=[Detached Shading:Building]
   *************
   ** Warning ** Too many figures [>=15000] in a shadow overlap
   **   ~~~   ** Overlapping figure=SHADINGB4205W5057, Surface Class=[Detached Shading:Building]
   **   ~~~   **   This error occurred 2 times.
   **   ~~~   ** Figure being Overlapped=SHADINGB3923W9474, Surface Class=[Detached Shading:Building]
   **   ~~~   ** Figure being Overlapped=SHADINGB3923W9814, Surface Class=[Detached Shading:Building]
   *************
   ** Warning ** Too many figures [>=15000] in a shadow overlap
   **   ~~~   ** Overlapping figure=Mir-SHADINGB797W5791, Surface Class=[Detached Shading:Building]
   **   ~~~   **   This error occurred 2 times.
   **   ~~~   ** Figure being Overlapped=SHADINGB3923W9292, Surface Class=[Detached Shading:Building]
   *************
   ** Warning ** Too many figures [>=15000] in a shadow overlap
   **   ~~~   ** Overlapping figure=SHADINGB797W5794, Surface Class=[Detached Shading:Building]
   **   ~~~   **   This error occurred 2 times.
   **   ~~~   ** Figure being Overlapped=SHADINGB3923W9305, Surface Class=[Detached Shading:Building]
   *************
   ** Warning ** Too many figures [>=15000] in a shadow overlap
   **   ~~~   ** Overlapping figure=Mir-SHADINGB797W5470, Surface Class=[Detached Shading:Building]
   **   ~~~   **   This error occurred 1 times.
   **   ~~~   ** Figure being Overlapped=Mir-SHADINGB3923W9430, Surface Class=[Detached Shading:Building]
   *************
   ** Warning ** Too many figures [>=15000] in a shadow overlap
   **   ~~~   ** Overlapping figure=SHADINGB797W5716, Surface Class=[Detached Shading:Building]
   **   ~~~   **   This error occurred 1 times.
   **   ~~~   ** Figure being Overlapped=Mir-SHADINGB3923W9420, Surface Class=[Detached Shading:Building]
   *************
   ** Warning ** Too many figures [>=15000] in a shadow overlap
   **   ~~~   ** Overlapping figure=SHADINGB797W5732, Surface Class=[Detached Shading:Building]
   **   ~~~   **   This error occurred 2 times.
   **   ~~~   ** Figure being Overlapped=SHADINGB3923W9829, Surface Class=[Detached Shading:Building]
   **   ~~~   ** Figure being Overlapped=WALL11434, Surface Class=[Wall]
   *************
   ** Warning ** Too many figures [>=15000] in a shadow overlap
   **   ~~~   ** Overlapping figure=SHADINGB797W5496, Surface Class=[Detached Shading:Building]
   **   ~~~   **   This error occurred 1 times.
   **   ~~~   ** Figure being Overlapped=SHADINGB3923W9921, Surface Class=[Detached Shading:Building]
   *************
   ** Warning ** Too many figures [>=15000] in a shadow overlap
   **   ~~~   ** Overlapping figure=Mir-SHADINGB797W5496, Surface Class=[Detached Shading:Building]
   **   ~~~   **   This error occurred 1 times.
   **   ~~~   ** Figure being Overlapped=SHADINGB3923W9999, Surface Class=[Detached Shading:Building]
   *************
   ** Warning ** Too many figures [>=15000] in a shadow overlap
   **   ~~~   ** Overlapping figure=Mir-SHADINGB2808W7641, Surface Class=[Detached Shading:Building]
   **   ~~~   **   This error occurred 3 times.
   **   ~~~   ** Figure being Overlapped=SHADINGB398W3558, Surface Class=[Detached Shading:Building]
   **   ~~~   ** Figure being Overlapped=Mir-SHADINGB838W5878, Surface Class=[Detached Shading:Building]
   *************
   ** Warning ** Too many figures [>=15000] in a shadow overlap
   **   ~~~   ** Overlapping figure=SHADINGB797W5749, Surface Class=[Detached Shading:Building]
   **   ~~~   **   This error occurred 1 times.
   **   ~~~   ** Figure being Overlapped=Mir-SHADINGB2834W8271, Surface Class=[Detached Shading:Building]
   *************
   ** Warning ** Too many figures [>=15000] in a shadow overlap
   **   ~~~   ** Overlapping figure=Mir-SHADINGB797W5749, Surface Class=[Detached Shading:Building]
   **   ~~~   **   This error occurred 1 times.
   **   ~~~   ** Figure being Overlapped=Mir-SHADINGB2834W8203, Surface Class=[Detached Shading:Building]
   *************
   ** Warning ** Too many figures [>=15000] in a shadow overlap
   **   ~~~   ** Overlapping figure=Mir-SHADINGB4134W11822, Surface Class=[Detached Shading:Building]
   **   ~~~   **   This error occurred 2 times.
   **   ~~~   ** Figure being Overlapped=SHADINGB123W2416, Surface Class=[Detached Shading:Building]
   **   ~~~   ** Figure being Overlapped=Mir-SHADINGB2206W6712, Surface Class=[Detached Shading:Building]
   *************
   ** Warning ** Too many figures [>=15000] in a shadow overlap
   **   ~~~   ** Overlapping figure=Mir-SHADINGB2206W6950, Surface Class=[Detached Shading:Building]
   **   ~~~   **   This error occurred 2 times.
   **   ~~~   ** Figure being Overlapped=WALL11432, Surface Class=[Wall]
   *************
   ** Warning ** Too many figures [>=15000] in a shadow overlap
   **   ~~~   ** Overlapping figure=SHADINGB2206W6968, Surface Class=[Detached Shading:Building]
   **   ~~~   **   This error occurred 2 times.
   **   ~~~   ** Figure being Overlapped=WALL11421, Surface Class=[Wall]
   *************
   ** Warning ** Too many figures [>=15000] in a shadow overlap
   **   ~~~   ** Overlapping figure=Mir-SHADINGB797W5731, Surface Class=[Detached Shading:Building]
   **   ~~~   **   This error occurred 1 times.
   **   ~~~   ** Figure being Overlapped=WALL11433, Surface Class=[Wall]
   *************
   ** Warning ** Too many figures [>=15000] in a shadow overlap
   **   ~~~   ** Overlapping figure=SHADINGB797W5437, Surface Class=[Detached Shading:Building]
   **   ~~~   **   This error occurred 1 times.
   **   ~~~   ** Figure being Overlapped=Mir-SHADINGB3923W9490, Surface Class=[Detached Shading:Building]
   *************
   ** Warning ** Too many figures [>=15000] in a shadow overlap
   **   ~~~   ** Overlapping figure=SHADINGB1173W6567, Surface Class=[Detached Shading:Building]
   **   ~~~   **   This error occurred 1 times.
   **   ~~~   ** Figure being Overlapped=Mir-SHADINGB123W2263, Surface Class=[Detached Shading:Building]
   *************
   ** Warning ** Too many figures [>=15000] in a shadow overlap
   **   ~~~   ** Overlapping figure=Mir-SHADINGB2206W7026, Surface Class=[Detached Shading:Building]
   **   ~~~   **   This error occurred 2 times.
   **   ~~~   ** Figure being Overlapped=Mir-SHADINGB3923W9244, Surface Class=[Detached Shading:Building]
   *************
   ** Warning ** Too many figures [>=15000] in a shadow overlap
   **   ~~~   ** Overlapping figure=Mir-SHADINGB2206W7025, Surface Class=[Detached Shading:Building]
   **   ~~~   **   This error occurred 2 times.
   **   ~~~   ** Figure being Overlapped=Mir-SHADINGB3923W9243, Surface Class=[Detached Shading:Building]
   *************
   ** Warning ** Too many figures [>=15000] in a shadow overlap
   **   ~~~   ** Overlapping figure=SHADINGB2808W8021, Surface Class=[Detached Shading:Building]
   **   ~~~   **   This error occurred 2 times.
   **   ~~~   ** Figure being Overlapped=SHADINGB398W3218, Surface Class=[Detached Shading:Building]
   **   ~~~   ** Figure being Overlapped=Mir-SHADINGB398W3386, Surface Class=[Detached Shading:Building]
   *************
   ** Warning ** Too many figures [>=15000] in a shadow overlap
   **   ~~~   ** Overlapping figure=SHADINGB797W5408, Surface Class=[Detached Shading:Building]
   **   ~~~   **   This error occurred 1 times.
   **   ~~~   ** Figure being Overlapped=Mir-SHADINGB3923W9351, Surface Class=[Detached Shading:Building]
   *************
   ** Warning ** Too many figures [>=15000] in a shadow overlap
   **   ~~~   ** Overlapping figure=Mir-SHADINGB797W5408, Surface Class=[Detached Shading:Building]
   **   ~~~   **   This error occurred 2 times.
   **   ~~~   ** Figure being Overlapped=Mir-SHADINGB3923W9352, Surface Class=[Detached Shading:Building]
   *************
   ** Warning ** Too many figures [>=15000] in a shadow overlap
   **   ~~~   ** Overlapping figure=SHADINGB2206W6922, Surface Class=[Detached Shading:Building]
   **   ~~~   **   This error occurred 1 times.
   **   ~~~   ** Figure being Overlapped=SHADINGB3923W9335, Surface Class=[Detached Shading:Building]
   *************
   ** Warning ** Too many figures [>=15000] in a shadow overlap
   **   ~~~   ** Overlapping figure=Mir-SHADINGB2206W6922, Surface Class=[Detached Shading:Building]
   **   ~~~   **   This error occurred 1 times.
   **   ~~~   ** Figure being Overlapped=SHADINGB3923W9336, Surface Class=[Detached Shading:Building]
   *************
   ** Warning ** Too many figures [>=15000] in a shadow overlap
   **   ~~~   ** Overlapping figure=SHADINGB797W5713, Surface Class=[Detached Shading:Building]
   **   ~~~   **   This error occurred 1 times.
   **   ~~~   ** Figure being Overlapped=Mir-SHADINGB3923W9534, Surface Class=[Detached Shading:Building]
   *************
   ** Warning ** Too many figures [>=15000] in a shadow overlap
   **   ~~~   ** Overlapping figure=Mir-SHADINGB1173W6272, Surface Class=[Detached Shading:Building]
   **   ~~~   **   This error occurred 1 times.
   **   ~~~   ** Figure being Overlapped=SHADINGB123W2405, Surface Class=[Detached Shading:Building]
   *************
   ** Warning ** Too many figures [>=15000] in a shadow overlap
   **   ~~~   ** Overlapping figure=SHADINGB1173W6010, Surface Class=[Detached Shading:Building]
   **   ~~~   **   This error occurred 2 times.
   **   ~~~   ** Figure being Overlapped=SHADINGB123W2205, Surface Class=[Detached Shading:Building]
   **   ~~~   ** Figure being Overlapped=Mir-SHADINGB2808W8051, Surface Class=[Detached Shading:Building]
   *************
   ** Warning ** Too many figures [>=15000] in a shadow overlap
   **   ~~~   ** Overlapping figure=Mir-SHADINGB1173W6010, Surface Class=[Detached Shading:Building]
   **   ~~~   **   This error occurred 1 times.
   **   ~~~   ** Figure being Overlapped=SHADINGB123W2685, Surface Class=[Detached Shading:Building]
   *************
   ** Warning ** Too many figures [>=15000] in a shadow overlap
   **   ~~~   ** Overlapping figure=Mir-SHADINGB797W5467, Surface Class=[Detached Shading:Building]
   **   ~~~   **   This error occurred 2 times.
   **   ~~~   ** Figure being Overlapped=Mir-SHADINGB2834W8273, Surface Class=[Detached Shading:Building]
   **   ~~~   ** Figure being Overlapped=Mir-SHADINGB398W2913, Surface Class=[Detached Shading:Building]
   *************
   ** Warning ** Too many figures [>=15000] in a shadow overlap
   **   ~~~   ** Overlapping figure=SHADINGB797W5610, Surface Class=[Detached Shading:Building]
   **   ~~~   **   This error occurred 1 times.
   **   ~~~   ** Figure being Overlapped=Mir-SHADINGB398W3399, Surface Class=[Detached Shading:Building]
   *************
   ** Warning ** Too many figures [>=15000] in a shadow overlap
   **   ~~~   ** Overlapping figure=Mir-SHADINGB797W5423, Surface Class=[Detached Shading:Building]
   **   ~~~   **   This error occurred 2 times.
   **   ~~~   ** Figure being Overlapped=SHADINGB398W3304, Surface Class=[Detached Shading:Building]
   **   ~~~   ** Figure being Overlapped=SHADINGB3923W9696, Surface Class=[Detached Shading:Building]
   *************
   ** Warning ** Too many figures [>=15000] in a shadow overlap
   **   ~~~   ** Overlapping figure=SHADINGB797W5392, Surface Class=[Detached Shading:Building]
   **   ~~~   **   This error occurred 1 times.
   **   ~~~   ** Figure being Overlapped=WALL11434, Surface Class=[Wall]
   *************
   ** Warning ** Too many figures [>=15000] in a shadow overlap
   **   ~~~   ** Overlapping figure=SHADINGB2206W6996, Surface Class=[Detached Shading:Building]
   **   ~~~   **   This error occurred 1 times.
   **   ~~~   ** Figure being Overlapped=SHADINGB3923W9478, Surface Class=[Detached Shading:Building]
   *************
   ** Warning ** Too many figures [>=15000] in a shadow overlap
   **   ~~~   ** Overlapping figure=Mir-SHADINGB2206W6917, Surface Class=[Detached Shading:Building]
   **   ~~~   **   This error occurred 1 times.
   **   ~~~   ** Figure being Overlapped=Mir-SHADINGB3923W9367, Surface Class=[Detached Shading:Building]
   *************
   ** Warning ** Too many figures [>=15000] in a shadow overlap
   **   ~~~   ** Overlapping figure=SHADINGB797W5600, Surface Class=[Detached Shading:Building]
   **   ~~~   **   This error occurred 1 times.
   **   ~~~   ** Figure being Overlapped=Mir-SHADINGB3923W9435, Surface Class=[Detached Shading:Building]
   *************
   ** Warning ** Too many figures [>=15000] in a shadow overlap
   **   ~~~   ** Overlapping figure=Mir-SHADINGB797W5600, Surface Class=[Detached Shading:Building]
   **   ~~~   **   This error occurred 1 times.
   **   ~~~   ** Figure being Overlapped=Mir-SHADINGB3923W9436, Surface Class=[Detached Shading:Building]
   *************
   ** Warning ** Too many figures [>=15000] in a shadow overlap
   **   ~~~   ** Overlapping figure=SHADINGB1173W6285, Surface Class=[Detached Shading:Building]
   **   ~~~   **   This error occurred 3 times.
   **   ~~~   ** Figure being Overlapped=SHADINGB2808W8023, Surface Class=[Detached Shading:Building]
   **   ~~~   ** Figure being Overlapped=Mir-SHADINGB123W2289, Surface Class=[Detached Shading:Building]
   **   ~~~   ** Figure being Overlapped=Mir-SHADINGB123W2794, Surface Class=[Detached Shading:Building]
   *************
   ** Warning ** Too many figures [>=15000] in a shadow overlap
   **   ~~~   ** Overlapping figure=Mir-SHADINGB1173W6481, Surface Class=[Detached Shading:Building]
   **   ~~~   **   This error occurred 1 times.
   **   ~~~   ** Figure being Overlapped=Mir-SHADINGB123W2794, Surface Class=[Detached Shading:Building]
   *************
   ** Warning ** Too many figures [>=15000] in a shadow overlap
   **   ~~~   ** Overlapping figure=SHADINGB1173W6329, Surface Class=[Detached Shading:Building]
   **   ~~~   **   This error occurred 3 times.
   **   ~~~   ** Figure being Overlapped=SHADINGB2808W7705, Surface Class=[Detached Shading:Building]
   **   ~~~   ** Figure being Overlapped=SHADINGB123W2765, Surface Class=[Detached Shading:Building]
   **   ~~~   ** Figure being Overlapped=Mir-SHADINGB123W2794, Surface Class=[Detached Shading:Building]
   *************
   ** Warning ** Too many figures [>=15000] in a shadow overlap
   **   ~~~   ** Overlapping figure=SHADINGB797W5779, Surface Class=[Detached Shading:Building]
   **   ~~~   **   This error occurred 1 times.
   **   ~~~   ** Figure being Overlapped=SHADINGB3923W9697, Surface Class=[Detached Shading:Building]
   *************
   ** Warning ** Too many figures [>=15000] in a shadow overlap
   **   ~~~   ** Overlapping figure=Mir-SHADINGB1173W6166, Surface Class=[Detached Shading:Building]
   **   ~~~   **   This error occurred 1 times.
   **   ~~~   ** Figure being Overlapped=SHADINGB123W2766, Surface Class=[Detached Shading:Building]
   *************
   ** Warning ** Too many figures [>=15000] in a shadow overlap
   **   ~~~   ** Overlapping figure=Mir-SHADINGB1173W6316, Surface Class=[Detached Shading:Building]
   **   ~~~   **   This error occurred 1 times.
   **   ~~~   ** Figure being Overlapped=SHADINGB123W2770, Surface Class=[Detached Shading:Building]
   *************
   ** Warning ** Too many figures [>=15000] in a shadow overlap
   **   ~~~   ** Overlapping figure=SHADINGB1173W5981, Surface Class=[Detached Shading:Building]
   **   ~~~   **   This error occurred 1 times.
   **   ~~~   ** Figure being Overlapped=SHADINGB123W2765, Surface Class=[Detached Shading:Building]
   *************
   **   ~~~   **   The too many figures errors occurred 28565 times (total).
   *************
   ************* EnergyPlus Warmup Error Summary. During Warmup: 0 Warning; 0 Severe Errors.
   ************* EnergyPlus Sizing Error Summary. During Sizing: 1 Warning; 0 Severe Errors.
   ************* EnergyPlus Completed Successfully-- 28578 Warning; 0 Severe Errors; Elapsed Time=00hr 44min 46.00sec
