Program Version,EnergyPlus, Version 8.2.0-e53a815bb2, YMD=2015.09.17 13:11,IDD_Version 8.2.0
   ** Warning ** Timestep: Requested number (1) is less than the suggested minimum of 4.
   **   ~~~   ** Please see entry for Timestep in Input/Output Reference for discussion of considerations.
   ** Warning ** ProcessScheduleInput: Schedule:Compact="VENTILATIONSCHEDULE", Schedule Type Limits Name="FRACTION" not found -- will not be validated
   ** Warning ** CheckConvexity: Surface="SHADINGB3923W9619", Collinear points have been removed.
   ** Warning ** CheckConvexity: Surface="SHADINGB3923W9827", Collinear points have been removed.
   ** Warning ** CheckConvexity: Surface="SHADINGB3923W9572", Collinear points have been removed.
   ** Warning ** GetHTSurfaceData: Surfaces with interface to Ground found but no "Ground Temperatures" were input.
   **   ~~~   ** Found first in surface=FLOOR3563
   **   ~~~   ** Defaults, constant throughout the year of (18.0) will be used.
   ** Warning ** GetSurfaceData: There are 3 coincident/collinear vertices; These have been deleted unless the deletion would bring the number of surface sides < 3.
   **   ~~~   ** For explicit details on each problem surface, use Output:Diagnostics,DisplayExtraWarnings;
   ** Warning ** ProcessSurfaceVertices: Possible non-planar surface:"SHADINGB3923W9290", Max "out of line"=8.45091E-004 at Vertex # 1
   ** Warning ** ProcessSurfaceVertices: Possible non-planar surface:"SHADINGB3923W9295", Max "out of line"=8.45082E-004 at Vertex # 4
   ** Warning ** ProcessSurfaceVertices: Possible non-planar surface:"SHADINGB3923W9296", Max "out of line"=8.45091E-004 at Vertex # 1
   ** Warning ** ProcessSurfaceVertices: Possible non-planar surface:"SHADINGB3923W9293", Max "out of line"=8.45089E-004 at Vertex # 3
   ** Warning ** ProcessSurfaceVertices: Possible non-planar surface:"SHADINGB3923W9294", Max "out of line"=8.45085E-004 at Vertex # 1
   ** Warning ** ProcessSurfaceVertices: Possible non-planar surface:"SHADINGB3923W9291", Max "out of line"=7.06793E-004 at Vertex # 3
   ** Warning ** ProcessSurfaceVertices: Possible non-planar surface:"SHADINGB3923W9292", Max "out of line"=8.45087E-004 at Vertex # 1
   ** Warning ** GetPurchasedAir: ZoneHVAC:IdealLoadsAirSystem="ZONE11466ZONEHVAC:IDEALLOADSAIRSYSTEM blank field
   **   ~~~   ** Outdoor Air Inlet Node Name is blank, but there is outdoor air requested for this system.
   **   ~~~   ** Creating node name =ZONE11466ZONEHVAC:IDEALLOADSAIRSYSTEM OUTDOOR AIR INLET NODE
   ** Warning ** GetPurchasedAir: ZoneHVAC:IdealLoadsAirSystem="ZONE11466ZONEHVAC:IDEALLOADSAIRSYSTEM missing data
   **   ~~~   ** ZONE11466ZONEHVAC:IDEALLOADSAIRSYSTEM OUTDOOR AIR INLET NODE does not appear in an OutdoorAir:NodeList or as an OutdoorAir:Node.
   **   ~~~   ** Adding OutdoorAir:Node=ZONE11466ZONEHVAC:IDEALLOADSAIRSYSTEM OUTDOOR AIR INLET NODE
   ************* Testing Individual Branch Integrity
   ************* All Branches passed integrity testing
   ************* Testing Individual Supply Air Path Integrity
   ************* All Supply Air Paths passed integrity testing
   ************* Testing Individual Return Air Path Integrity
   ************* All Return Air Paths passed integrity testing
   ************* No node connection errors were found.
   ************* Beginning Simulation
   ************* Simulation Error Summary *************
   ************* There are 1 unused schedules in input.
   ************* Use Output:Diagnostics,DisplayUnusedSchedules; to see them.
   *************
   ************* ===== Recurring Surface Error Summary =====
   ************* The following surface error messages occurred.
   *************
   ************* Too many figures [>=500000] in shadow overlap errors occurring...
   ************* These occur throughout the year and may occur several times for the same surfaces. You may be able to reduce them by adding OutputDiagnostics,DoNotMirrorDetachedShading;
   *************
   ** Warning ** Too many figures [>=500000] in a shadow overlap
   **   ~~~   ** Overlapping figure=Mir-SHADINGB838W5926, Surface Class=[Detached Shading:Building]
   **   ~~~   **   This error occurred 1 times.
   **   ~~~   ** Figure being Overlapped=SHADINGB3923W9474, Surface Class=[Detached Shading:Building]
   *************
   ** Warning ** Too many figures [>=500000] in a shadow overlap
   **   ~~~   ** Overlapping figure=SHADINGB398W3152, Surface Class=[Detached Shading:Building]
   **   ~~~   **   This error occurred 1 times.
   **   ~~~   ** Figure being Overlapped=SHADINGB3923W9473, Surface Class=[Detached Shading:Building]
   *************
   ** Warning ** Too many figures [>=500000] in a shadow overlap
   **   ~~~   ** Overlapping figure=Mir-SHADINGB3545W12011, Surface Class=[Detached Shading:Building]
   **   ~~~   **   This error occurred 2 times.
   **   ~~~   ** Figure being Overlapped=Mir-SHADINGB3923W9545, Surface Class=[Detached Shading:Building]
   *************
   ** Warning ** Too many figures [>=500000] in a shadow overlap
   **   ~~~   ** Overlapping figure=SHADINGB3545W11971, Surface Class=[Detached Shading:Building]
   **   ~~~   **   This error occurred 1 times.
   **   ~~~   ** Figure being Overlapped=SHADINGB3923W9585, Surface Class=[Detached Shading:Building]
   *************
   ** Warning ** Too many figures [>=500000] in a shadow overlap
   **   ~~~   ** Overlapping figure=SHADINGB3545W12011, Surface Class=[Detached Shading:Building]
   **   ~~~   **   This error occurred 3 times.
   **   ~~~   ** Figure being Overlapped=Mir-SHADINGB3923W9546, Surface Class=[Detached Shading:Building]
   *************
   ** Warning ** Too many figures [>=500000] in a shadow overlap
   **   ~~~   ** Overlapping figure=Mir-SHADINGB797W5669, Surface Class=[Detached Shading:Building]
   **   ~~~   **   This error occurred 1 times.
   **   ~~~   ** Figure being Overlapped=SHADINGB3923W9561, Surface Class=[Detached Shading:Building]
   *************
   ** Warning ** Too many figures [>=500000] in a shadow overlap
   **   ~~~   ** Overlapping figure=SHADINGB797W5670, Surface Class=[Detached Shading:Building]
   **   ~~~   **   This error occurred 1 times.
   **   ~~~   ** Figure being Overlapped=SHADINGB3923W9557, Surface Class=[Detached Shading:Building]
   *************
   ** Warning ** Too many figures [>=500000] in a shadow overlap
   **   ~~~   ** Overlapping figure=Mir-SHADINGB3545W12024, Surface Class=[Detached Shading:Building]
   **   ~~~   **   This error occurred 2 times.
   **   ~~~   ** Figure being Overlapped=Mir-SHADINGB3923W9543, Surface Class=[Detached Shading:Building]
   *************
   ** Warning ** Too many figures [>=500000] in a shadow overlap
   **   ~~~   ** Overlapping figure=Mir-SHADINGB797W5496, Surface Class=[Detached Shading:Building]
   **   ~~~   **   This error occurred 1 times.
   **   ~~~   ** Figure being Overlapped=Mir-SHADINGB3923W9545, Surface Class=[Detached Shading:Building]
   *************
   ** Warning ** Too many figures [>=500000] in a shadow overlap
   **   ~~~   ** Overlapping figure=SHADINGB797W5495, Surface Class=[Detached Shading:Building]
   **   ~~~   **   This error occurred 1 times.
   **   ~~~   ** Figure being Overlapped=SHADINGB3923W9585, Surface Class=[Detached Shading:Building]
   *************
   ** Warning ** Too many figures [>=500000] in a shadow overlap
   **   ~~~   ** Overlapping figure=SHADINGB3545W12010, Surface Class=[Detached Shading:Building]
   **   ~~~   **   This error occurred 1 times.
   **   ~~~   ** Figure being Overlapped=SHADINGB3923W9561, Surface Class=[Detached Shading:Building]
   *************
   ** Warning ** Too many figures [>=500000] in a shadow overlap
   **   ~~~   ** Overlapping figure=Mir-SHADINGB3545W12010, Surface Class=[Detached Shading:Building]
   **   ~~~   **   This error occurred 1 times.
   **   ~~~   ** Figure being Overlapped=SHADINGB3923W9556, Surface Class=[Detached Shading:Building]
   *************
   ** Warning ** Too many figures [>=500000] in a shadow overlap
   **   ~~~   ** Overlapping figure=Mir-SHADINGB797W5750, Surface Class=[Detached Shading:Building]
   **   ~~~   **   This error occurred 1 times.
   **   ~~~   ** Figure being Overlapped=Mir-SHADINGB3923W9546, Surface Class=[Detached Shading:Building]
   *************
   ** Warning ** Too many figures [>=500000] in a shadow overlap
   **   ~~~   ** Overlapping figure=SHADINGB797W5749, Surface Class=[Detached Shading:Building]
   **   ~~~   **   This error occurred 1 times.
   **   ~~~   ** Figure being Overlapped=Mir-SHADINGB3923W9545, Surface Class=[Detached Shading:Building]
   *************
   ** Warning ** Too many figures [>=500000] in a shadow overlap
   **   ~~~   ** Overlapping figure=Mir-SHADINGB797W5374, Surface Class=[Detached Shading:Building]
   **   ~~~   **   This error occurred 1 times.
   **   ~~~   ** Figure being Overlapped=Mir-SHADINGB3923W9545, Surface Class=[Detached Shading:Building]
   *************
   ** Warning ** Too many figures [>=500000] in a shadow overlap
   **   ~~~   ** Overlapping figure=SHADINGB797W5371, Surface Class=[Detached Shading:Building]
   **   ~~~   **   This error occurred 1 times.
   **   ~~~   ** Figure being Overlapped=SHADINGB3923W9585, Surface Class=[Detached Shading:Building]
   *************
   ** Warning ** Too many figures [>=500000] in a shadow overlap
   **   ~~~   ** Overlapping figure=Mir-SHADINGB3545W12004, Surface Class=[Detached Shading:Building]
   **   ~~~   **   This error occurred 1 times.
   **   ~~~   ** Figure being Overlapped=Mir-SHADINGB3923W9548, Surface Class=[Detached Shading:Building]
   *************
   ** Warning ** Too many figures [>=500000] in a shadow overlap
   **   ~~~   ** Overlapping figure=SHADINGB3545W12009, Surface Class=[Detached Shading:Building]
   **   ~~~   **   This error occurred 1 times.
   **   ~~~   ** Figure being Overlapped=SHADINGB3923W9559, Surface Class=[Detached Shading:Building]
   *************
   ** Warning ** Too many figures [>=500000] in a shadow overlap
   **   ~~~   ** Overlapping figure=SHADINGB3545W12025, Surface Class=[Detached Shading:Building]
   **   ~~~   **   This error occurred 1 times.
   **   ~~~   ** Figure being Overlapped=WALL11436, Surface Class=[Wall]
   *************
   ** Warning ** Too many figures [>=500000] in a shadow overlap
   **   ~~~   ** Overlapping figure=Mir-SHADINGB3545W12025, Surface Class=[Detached Shading:Building]
   **   ~~~   **   This error occurred 1 times.
   **   ~~~   ** Figure being Overlapped=WALL11435, Surface Class=[Wall]
   *************
   ** Warning ** Too many figures [>=500000] in a shadow overlap
   **   ~~~   ** Overlapping figure=SHADINGB398W3016, Surface Class=[Detached Shading:Building]
   **   ~~~   **   This error occurred 1 times.
   **   ~~~   ** Figure being Overlapped=WALL11436, Surface Class=[Wall]
   *************
   ** Warning ** Too many figures [>=500000] in a shadow overlap
   **   ~~~   ** Overlapping figure=Mir-SHADINGB398W3016, Surface Class=[Detached Shading:Building]
   **   ~~~   **   This error occurred 1 times.
   **   ~~~   ** Figure being Overlapped=WALL11435, Surface Class=[Wall]
   *************
   ** Warning ** Too many figures [>=500000] in a shadow overlap
   **   ~~~   ** Overlapping figure=SHADINGB797W5570, Surface Class=[Detached Shading:Building]
   **   ~~~   **   This error occurred 1 times.
   **   ~~~   ** Figure being Overlapped=Mir-SHADINGB3923W9545, Surface Class=[Detached Shading:Building]
   *************
   ** Warning ** Too many figures [>=500000] in a shadow overlap
   **   ~~~   ** Overlapping figure=Mir-SHADINGB797W5570, Surface Class=[Detached Shading:Building]
   **   ~~~   **   This error occurred 1 times.
   **   ~~~   ** Figure being Overlapped=SHADINGB3923W9585, Surface Class=[Detached Shading:Building]
   *************
   ** Warning ** Too many figures [>=500000] in a shadow overlap
   **   ~~~   ** Overlapping figure=SHADINGB797W5567, Surface Class=[Detached Shading:Building]
   **   ~~~   **   This error occurred 1 times.
   **   ~~~   ** Figure being Overlapped=Mir-SHADINGB3923W9533, Surface Class=[Detached Shading:Building]
   *************
   ** Warning ** Too many figures [>=500000] in a shadow overlap
   **   ~~~   ** Overlapping figure=Mir-SHADINGB797W5567, Surface Class=[Detached Shading:Building]
   **   ~~~   **   This error occurred 1 times.
   **   ~~~   ** Figure being Overlapped=Mir-SHADINGB3923W9544, Surface Class=[Detached Shading:Building]
   *************
   ** Warning ** Too many figures [>=500000] in a shadow overlap
   **   ~~~   ** Overlapping figure=Mir-SHADINGB797W5744, Surface Class=[Detached Shading:Building]
   **   ~~~   **   This error occurred 1 times.
   **   ~~~   ** Figure being Overlapped=Mir-SHADINGB3923W9532, Surface Class=[Detached Shading:Building]
   *************
   ** Warning ** Too many figures [>=500000] in a shadow overlap
   **   ~~~   ** Overlapping figure=SHADINGB797W5435, Surface Class=[Detached Shading:Building]
   **   ~~~   **   This error occurred 1 times.
   **   ~~~   ** Figure being Overlapped=Mir-SHADINGB3923W9531, Surface Class=[Detached Shading:Building]
   *************
   ** Warning ** Too many figures [>=500000] in a shadow overlap
   **   ~~~   ** Overlapping figure=Mir-SHADINGB797W5666, Surface Class=[Detached Shading:Building]
   **   ~~~   **   This error occurred 1 times.
   **   ~~~   ** Figure being Overlapped=Mir-SHADINGB3923W9501, Surface Class=[Detached Shading:Building]
   *************
   ** Warning ** Too many figures [>=500000] in a shadow overlap
   **   ~~~   ** Overlapping figure=SHADINGB797W5663, Surface Class=[Detached Shading:Building]
   **   ~~~   **   This error occurred 1 times.
   **   ~~~   ** Figure being Overlapped=Mir-SHADINGB3923W9500, Surface Class=[Detached Shading:Building]
   *************
   ** Warning ** Too many figures [>=500000] in a shadow overlap
   **   ~~~   ** Overlapping figure=SHADINGB3545W12008, Surface Class=[Detached Shading:Building]
   **   ~~~   **   This error occurred 1 times.
   **   ~~~   ** Figure being Overlapped=Mir-SHADINGB3923W9535, Surface Class=[Detached Shading:Building]
   *************
   ** Warning ** Too many figures [>=500000] in a shadow overlap
   **   ~~~   ** Overlapping figure=Mir-SHADINGB3545W12008, Surface Class=[Detached Shading:Building]
   **   ~~~   **   This error occurred 1 times.
   **   ~~~   ** Figure being Overlapped=Mir-SHADINGB3923W9532, Surface Class=[Detached Shading:Building]
   *************
   **   ~~~   **   The too many figures errors occurred 36 times (total).
   *************
   ************* EnergyPlus Warmup Error Summary. During Warmup: 0 Warning; 0 Severe Errors.
   ************* EnergyPlus Sizing Error Summary. During Sizing: 1 Warning; 0 Severe Errors.
   ************* EnergyPlus Completed Successfully-- 54 Warning; 0 Severe Errors; Elapsed Time=00hr 14min 27.00sec
