Program Version,EnergyPlus, Version 8.2.0-e53a815bb2, YMD=2015.08.24 16:46,IDD_Version 8.2.0
   ** Warning ** Timestep: Requested number (1) is less than the suggested minimum of 4.
   **   ~~~   ** Please see entry for Timestep in Input/Output Reference for discussion of considerations.
   ** Warning ** ProcessScheduleInput: Schedule:Compact="VENTILATIONSCHEDULE", Schedule Type Limits Name="FRACTION" not found -- will not be validated
   ** Warning ** CheckConvexity: Surface="SHADINGB3429W10572", Collinear points have been removed.
   ** Warning ** CheckConvexity: Surface="SHADINGB3429W10574", Collinear points have been removed.
   ** Warning ** CheckConvexity: Surface="SHADINGB2896W8460", Collinear points have been removed.
   ** Warning ** GetHTSurfaceData: Surfaces with interface to Ground found but no "Ground Temperatures" were input.
   **   ~~~   ** Found first in surface=FLOOR3563
   **   ~~~   ** Defaults, constant throughout the year of (18.0) will be used.
   ** Warning ** CalcSurfaceCentroid: 634 Surfaces have the Z coordinate < 0.
   **   ~~~   ** ...in any calculations, Wind Speed will be 0.0 for these surfaces.
   **   ~~~   ** ...in any calculations, Outside temperatures will be the outside temperature + 9.750E-003 for these surfaces.
   **   ~~~   ** ...that is, these surfaces will have conditions as though at ground level.
   ** Warning ** GetSurfaceData: There are 4 coincident/collinear vertices; These have been deleted unless the deletion would bring the number of surface sides < 3.
   **   ~~~   ** For explicit details on each problem surface, use Output:Diagnostics,DisplayExtraWarnings;
   ** Warning ** ShadowCalculation: invalid Sky Diffuse Modeling Algorithm
   **   ~~~   ** Value entered="SIMPLESKYDIFFUSEMODELIN", SimpleSkyDiffuseModeling will be used.
   ** Warning ** GetPurchasedAir: ZoneHVAC:IdealLoadsAirSystem="ZONE11466ZONEHVAC:IDEALLOADSAIRSYSTEM blank field
   **   ~~~   ** Outdoor Air Inlet Node Name is blank, but there is outdoor air requested for this system.
   **   ~~~   ** Creating node name =ZONE11466ZONEHVAC:IDEALLOADSAIRSYSTEM OUTDOOR AIR INLET NODE
   ** Warning ** GetPurchasedAir: ZoneHVAC:IdealLoadsAirSystem="ZONE11466ZONEHVAC:IDEALLOADSAIRSYSTEM missing data
   **   ~~~   ** ZONE11466ZONEHVAC:IDEALLOADSAIRSYSTEM OUTDOOR AIR INLET NODE does not appear in an OutdoorAir:NodeList or as an OutdoorAir:Node.
   **   ~~~   ** Adding OutdoorAir:Node=ZONE11466ZONEHVAC:IDEALLOADSAIRSYSTEM OUTDOOR AIR INLET NODE
   ************* Testing Individual Branch Integrity
   ************* All Branches passed integrity testing
   ************* Testing Individual Supply Air Path Integrity
   ************* All Supply Air Paths passed integrity testing
   ************* Testing Individual Return Air Path Integrity
   ************* All Return Air Paths passed integrity testing
   ************* No node connection errors were found.
   ************* Beginning Simulation
   ************* Simulation Error Summary *************
   ************* There are 1 unused schedules in input.
   ************* Use Output:Diagnostics,DisplayUnusedSchedules; to see them.
   *************
   ************* ===== Recurring Surface Error Summary =====
   ************* The following surface error messages occurred.
   *************
   ************* Too many figures [>=500000] in shadow overlap errors occurring...
   ************* These occur throughout the year and may occur several times for the same surfaces. You may be able to reduce them by adding OutputDiagnostics,DoNotMirrorDetachedShading;
   *************
   ** Warning ** Too many figures [>=500000] in a shadow overlap
   **   ~~~   ** Overlapping figure=Mir-SHADINGB123W2183, Surface Class=[Detached Shading:Building]
   **   ~~~   **   This error occurred 3 times.
   **   ~~~   ** Figure being Overlapped=SHADINGB2206W6753, Surface Class=[Detached Shading:Building]
   **   ~~~   ** Figure being Overlapped=Mir-SHADINGB3923W9740, Surface Class=[Detached Shading:Building]
   **   ~~~   ** Figure being Overlapped=Mir-SHADINGB3923W9738, Surface Class=[Detached Shading:Building]
   *************
   ** Warning ** Too many figures [>=500000] in a shadow overlap
   **   ~~~   ** Overlapping figure=SHADINGB123W2726, Surface Class=[Detached Shading:Building]
   **   ~~~   **   This error occurred 1 times.
   **   ~~~   ** Figure being Overlapped=SHADINGB2206W7175, Surface Class=[Detached Shading:Building]
   *************
   ** Warning ** Too many figures [>=500000] in a shadow overlap
   **   ~~~   ** Overlapping figure=SHADINGB123W2729, Surface Class=[Detached Shading:Building]
   **   ~~~   **   This error occurred 4 times.
   **   ~~~   ** Figure being Overlapped=SHADINGB2206W6832, Surface Class=[Detached Shading:Building]
   **   ~~~   ** Figure being Overlapped=SHADINGB648W5262, Surface Class=[Detached Shading:Building]
   **   ~~~   ** Figure being Overlapped=SHADINGB2896W8442, Surface Class=[Detached Shading:Building]
   **   ~~~   ** Figure being Overlapped=SHADINGB398W3306, Surface Class=[Detached Shading:Building]
   *************
   ** Warning ** Too many figures [>=500000] in a shadow overlap
   **   ~~~   ** Overlapping figure=Mir-SHADINGB123W2729, Surface Class=[Detached Shading:Building]
   **   ~~~   **   This error occurred 3 times.
   **   ~~~   ** Figure being Overlapped=SHADINGB2206W7386, Surface Class=[Detached Shading:Building]
   **   ~~~   ** Figure being Overlapped=SHADINGB648W5259, Surface Class=[Detached Shading:Building]
   **   ~~~   ** Figure being Overlapped=Mir-SHADINGB4226W4572, Surface Class=[Detached Shading:Building]
   *************
   ** Warning ** Too many figures [>=500000] in a shadow overlap
   **   ~~~   ** Overlapping figure=Mir-SHADINGB123W2380, Surface Class=[Detached Shading:Building]
   **   ~~~   **   This error occurred 3 times.
   **   ~~~   ** Figure being Overlapped=SHADINGB2206W6753, Surface Class=[Detached Shading:Building]
   **   ~~~   ** Figure being Overlapped=SHADINGB3923W9447, Surface Class=[Detached Shading:Building]
   **   ~~~   ** Figure being Overlapped=Mir-SHADINGB3923W9326, Surface Class=[Detached Shading:Building]
   *************
   ** Warning ** Too many figures [>=500000] in a shadow overlap
   **   ~~~   ** Overlapping figure=SHADINGB123W2409, Surface Class=[Detached Shading:Building]
   **   ~~~   **   This error occurred 1 times.
   **   ~~~   ** Figure being Overlapped=SHADINGB2206W7175, Surface Class=[Detached Shading:Building]
   *************
   ** Warning ** Too many figures [>=500000] in a shadow overlap
   **   ~~~   ** Overlapping figure=SHADINGB797W5407, Surface Class=[Detached Shading:Building]
   **   ~~~   **   This error occurred 1 times.
   **   ~~~   ** Figure being Overlapped=SHADINGB648W5259, Surface Class=[Detached Shading:Building]
   *************
   ** Warning ** Too many figures [>=500000] in a shadow overlap
   **   ~~~   ** Overlapping figure=Mir-SHADINGB797W5407, Surface Class=[Detached Shading:Building]
   **   ~~~   **   This error occurred 1 times.
   **   ~~~   ** Figure being Overlapped=SHADINGB648W5260, Surface Class=[Detached Shading:Building]
   *************
   ** Warning ** Too many figures [>=500000] in a shadow overlap
   **   ~~~   ** Overlapping figure=SHADINGB2235W8157, Surface Class=[Detached Shading:Building]
   **   ~~~   **   This error occurred 2 times.
   **   ~~~   ** Figure being Overlapped=SHADINGB4226W4598, Surface Class=[Detached Shading:Building]
   **   ~~~   ** Figure being Overlapped=Mir-SHADINGB2206W6797, Surface Class=[Detached Shading:Building]
   *************
   ** Warning ** Too many figures [>=500000] in a shadow overlap
   **   ~~~   ** Overlapping figure=Mir-SHADINGB2235W8157, Surface Class=[Detached Shading:Building]
   **   ~~~   **   This error occurred 1 times.
   **   ~~~   ** Figure being Overlapped=SHADINGB4226W4596, Surface Class=[Detached Shading:Building]
   *************
   ** Warning ** Too many figures [>=500000] in a shadow overlap
   **   ~~~   ** Overlapping figure=Mir-SHADINGB797W5452, Surface Class=[Detached Shading:Building]
   **   ~~~   **   This error occurred 2 times.
   **   ~~~   ** Figure being Overlapped=SHADINGB4226W4515, Surface Class=[Detached Shading:Building]
   **   ~~~   ** Figure being Overlapped=SHADINGB3923W9518, Surface Class=[Detached Shading:Building]
   *************
   ** Warning ** Too many figures [>=500000] in a shadow overlap
   **   ~~~   ** Overlapping figure=SHADINGB797W5727, Surface Class=[Detached Shading:Building]
   **   ~~~   **   This error occurred 2 times.
   **   ~~~   ** Figure being Overlapped=Mir-SHADINGB4226W4540, Surface Class=[Detached Shading:Building]
   **   ~~~   ** Figure being Overlapped=SHADINGB3923W9521, Surface Class=[Detached Shading:Building]
   *************
   ** Warning ** Too many figures [>=500000] in a shadow overlap
   **   ~~~   ** Overlapping figure=Mir-SHADINGB2235W8114, Surface Class=[Detached Shading:Building]
   **   ~~~   **   This error occurred 2 times.
   **   ~~~   ** Figure being Overlapped=SHADINGB4226W4562, Surface Class=[Detached Shading:Building]
   **   ~~~   ** Figure being Overlapped=Mir-SHADINGB3923W9546, Surface Class=[Detached Shading:Building]
   *************
   ** Warning ** Too many figures [>=500000] in a shadow overlap
   **   ~~~   ** Overlapping figure=SHADINGB2235W8113, Surface Class=[Detached Shading:Building]
   **   ~~~   **   This error occurred 5 times.
   **   ~~~   ** Figure being Overlapped=SHADINGB4226W4563, Surface Class=[Detached Shading:Building]
   **   ~~~   ** Figure being Overlapped=Mir-SHADINGB3923W9545, Surface Class=[Detached Shading:Building]
   **   ~~~   ** Figure being Overlapped=SHADINGB3923W9206, Surface Class=[Detached Shading:Building]
   **   ~~~   ** Figure being Overlapped=Mir-SHADINGB2206W7279, Surface Class=[Detached Shading:Building]
   *************
   ** Warning ** Too many figures [>=500000] in a shadow overlap
   **   ~~~   ** Overlapping figure=Mir-SHADINGB2808W7597, Surface Class=[Detached Shading:Building]
   **   ~~~   **   This error occurred 3 times.
   **   ~~~   ** Figure being Overlapped=SHADINGB4226W4587, Surface Class=[Detached Shading:Building]
   **   ~~~   ** Figure being Overlapped=SHADINGB3923W9832, Surface Class=[Detached Shading:Building]
   **   ~~~   ** Figure being Overlapped=Mir-SHADINGB3923W9617, Surface Class=[Detached Shading:Building]
   *************
   ** Warning ** Too many figures [>=500000] in a shadow overlap
   **   ~~~   ** Overlapping figure=SHADINGB2808W7598, Surface Class=[Detached Shading:Building]
   **   ~~~   **   This error occurred 2 times.
   **   ~~~   ** Figure being Overlapped=SHADINGB4226W4588, Surface Class=[Detached Shading:Building]
   **   ~~~   ** Figure being Overlapped=SHADINGB3923W9706, Surface Class=[Detached Shading:Building]
   *************
   ** Warning ** Too many figures [>=500000] in a shadow overlap
   **   ~~~   ** Overlapping figure=SHADINGB2808W7932, Surface Class=[Detached Shading:Building]
   **   ~~~   **   This error occurred 2 times.
   **   ~~~   ** Figure being Overlapped=Mir-SHADINGB4247W4432, Surface Class=[Detached Shading:Building]
   **   ~~~   ** Figure being Overlapped=SHADINGB4226W4514, Surface Class=[Detached Shading:Building]
   *************
   ** Warning ** Too many figures [>=500000] in a shadow overlap
   **   ~~~   ** Overlapping figure=Mir-SHADINGB2808W7932, Surface Class=[Detached Shading:Building]
   **   ~~~   **   This error occurred 3 times.
   **   ~~~   ** Figure being Overlapped=Mir-SHADINGB4247W4431, Surface Class=[Detached Shading:Building]
   **   ~~~   ** Figure being Overlapped=SHADINGB3923W9367, Surface Class=[Detached Shading:Building]
   **   ~~~   ** Figure being Overlapped=SHADINGB4226W4512, Surface Class=[Detached Shading:Building]
   *************
   ** Warning ** Too many figures [>=500000] in a shadow overlap
   **   ~~~   ** Overlapping figure=Mir-SHADINGB2808W7452, Surface Class=[Detached Shading:Building]
   **   ~~~   **   This error occurred 2 times.
   **   ~~~   ** Figure being Overlapped=Mir-SHADINGB648W5307, Surface Class=[Detached Shading:Building]
   **   ~~~   ** Figure being Overlapped=Mir-SHADINGB4226W4489, Surface Class=[Detached Shading:Building]
   *************
   ** Warning ** Too many figures [>=500000] in a shadow overlap
   **   ~~~   ** Overlapping figure=SHADINGB2808W7933, Surface Class=[Detached Shading:Building]
   **   ~~~   **   This error occurred 3 times.
   **   ~~~   ** Figure being Overlapped=Mir-SHADINGB648W614, Surface Class=[Detached Shading:Building]
   **   ~~~   ** Figure being Overlapped=Mir-SHADINGB4226W4486, Surface Class=[Detached Shading:Building]
   **   ~~~   ** Figure being Overlapped=SHADINGB3923W9476, Surface Class=[Detached Shading:Building]
   *************
   ** Warning ** Too many figures [>=500000] in a shadow overlap
   **   ~~~   ** Overlapping figure=SHADINGB123W2773, Surface Class=[Detached Shading:Building]
   **   ~~~   **   This error occurred 7 times.
   **   ~~~   ** Figure being Overlapped=SHADINGB648W5259, Surface Class=[Detached Shading:Building]
   **   ~~~   ** Figure being Overlapped=Mir-SHADINGB4247W4333, Surface Class=[Detached Shading:Building]
   **   ~~~   ** Figure being Overlapped=SHADINGB838W5930, Surface Class=[Detached Shading:Building]
   **   ~~~   ** Figure being Overlapped=SHADINGB3923W9546, Surface Class=[Detached Shading:Building]
   **   ~~~   ** Figure being Overlapped=Mir-SHADINGB4226W4563, Surface Class=[Detached Shading:Building]
   **   ~~~   ** Figure being Overlapped=Mir-SHADINGB3923W9847, Surface Class=[Detached Shading:Building]
   *************
   ** Warning ** Too many figures [>=500000] in a shadow overlap
   **   ~~~   ** Overlapping figure=Mir-SHADINGB123W2773, Surface Class=[Detached Shading:Building]
   **   ~~~   **   This error occurred 4 times.
   **   ~~~   ** Figure being Overlapped=SHADINGB648W5260, Surface Class=[Detached Shading:Building]
   **   ~~~   ** Figure being Overlapped=Mir-SHADINGB4247W4463, Surface Class=[Detached Shading:Building]
   **   ~~~   ** Figure being Overlapped=SHADINGB838W5926, Surface Class=[Detached Shading:Building]
   **   ~~~   ** Figure being Overlapped=Mir-SHADINGB4226W4564, Surface Class=[Detached Shading:Building]
   *************
   ** Warning ** Too many figures [>=500000] in a shadow overlap
   **   ~~~   ** Overlapping figure=Mir-SHADINGB4134W11852, Surface Class=[Detached Shading:Building]
   **   ~~~   **   This error occurred 1 times.
   **   ~~~   ** Figure being Overlapped=Mir-SHADINGB648W589, Surface Class=[Detached Shading:Building]
   *************
   ** Warning ** Too many figures [>=500000] in a shadow overlap
   **   ~~~   ** Overlapping figure=SHADINGB4134W11855, Surface Class=[Detached Shading:Building]
   **   ~~~   **   This error occurred 2 times.
   **   ~~~   ** Figure being Overlapped=SHADINGB648W5243, Surface Class=[Detached Shading:Building]
   **   ~~~   ** Figure being Overlapped=Mir-SHADINGB2808W7792, Surface Class=[Detached Shading:Building]
   *************
   ** Warning ** Too many figures [>=500000] in a shadow overlap
   **   ~~~   ** Overlapping figure=Mir-SHADINGB479W3709, Surface Class=[Detached Shading:Building]
   **   ~~~   **   This error occurred 2 times.
   **   ~~~   ** Figure being Overlapped=Mir-SHADINGB2808W7656, Surface Class=[Detached Shading:Building]
   **   ~~~   ** Figure being Overlapped=SHADINGB2808W7581, Surface Class=[Detached Shading:Building]
   *************
   ** Warning ** Too many figures [>=500000] in a shadow overlap
   **   ~~~   ** Overlapping figure=SHADINGB479W3604, Surface Class=[Detached Shading:Building]
   **   ~~~   **   This error occurred 2 times.
   **   ~~~   ** Figure being Overlapped=Mir-SHADINGB2808W7646, Surface Class=[Detached Shading:Building]
   **   ~~~   ** Figure being Overlapped=SHADINGB4226W4619, Surface Class=[Detached Shading:Building]
   *************
   ** Warning ** Too many figures [>=500000] in a shadow overlap
   **   ~~~   ** Overlapping figure=SHADINGB479W3667, Surface Class=[Detached Shading:Building]
   **   ~~~   **   This error occurred 5 times.
   **   ~~~   ** Figure being Overlapped=Mir-SHADINGB2808W7464, Surface Class=[Detached Shading:Building]
   **   ~~~   ** Figure being Overlapped=SHADINGB2206W7113, Surface Class=[Detached Shading:Building]
   **   ~~~   ** Figure being Overlapped=Mir-SHADINGB2808W7795, Surface Class=[Detached Shading:Building]
   *************
   ** Warning ** Too many figures [>=500000] in a shadow overlap
   **   ~~~   ** Overlapping figure=Mir-SHADINGB479W3667, Surface Class=[Detached Shading:Building]
   **   ~~~   **   This error occurred 6 times.
   **   ~~~   ** Figure being Overlapped=Mir-SHADINGB2808W7942, Surface Class=[Detached Shading:Building]
   **   ~~~   ** Figure being Overlapped=Mir-SHADINGB3923W9368, Surface Class=[Detached Shading:Building]
   **   ~~~   ** Figure being Overlapped=SHADINGB2808W7692, Surface Class=[Detached Shading:Building]
   *************
   ** Warning ** Too many figures [>=500000] in a shadow overlap
   **   ~~~   ** Overlapping figure=Mir-SHADINGB123W2307, Surface Class=[Detached Shading:Building]
   **   ~~~   **   This error occurred 2 times.
   **   ~~~   ** Figure being Overlapped=SHADINGB2206W7312, Surface Class=[Detached Shading:Building]
   **   ~~~   ** Figure being Overlapped=Mir-SHADINGB3923W9309, Surface Class=[Detached Shading:Building]
   *************
   ** Warning ** Too many figures [>=500000] in a shadow overlap
   **   ~~~   ** Overlapping figure=SHADINGB123W2314, Surface Class=[Detached Shading:Building]
   **   ~~~   **   This error occurred 2 times.
   **   ~~~   ** Figure being Overlapped=Mir-SHADINGB2206W6680, Surface Class=[Detached Shading:Building]
   **   ~~~   ** Figure being Overlapped=SHADINGB4226W4491, Surface Class=[Detached Shading:Building]
   *************
   ** Warning ** Too many figures [>=500000] in a shadow overlap
   **   ~~~   ** Overlapping figure=SHADINGB123W2461, Surface Class=[Detached Shading:Building]
   **   ~~~   **   This error occurred 2 times.
   **   ~~~   ** Figure being Overlapped=SHADINGB2206W7178, Surface Class=[Detached Shading:Building]
   **   ~~~   ** Figure being Overlapped=SHADINGB4155W4932, Surface Class=[Detached Shading:Building]
   *************
   ** Warning ** Too many figures [>=500000] in a shadow overlap
   **   ~~~   ** Overlapping figure=Mir-SHADINGB123W2461, Surface Class=[Detached Shading:Building]
   **   ~~~   **   This error occurred 2 times.
   **   ~~~   ** Figure being Overlapped=SHADINGB2206W7161, Surface Class=[Detached Shading:Building]
   **   ~~~   ** Figure being Overlapped=SHADINGB3923W9476, Surface Class=[Detached Shading:Building]
   *************
   ** Warning ** Too many figures [>=500000] in a shadow overlap
   **   ~~~   ** Overlapping figure=Mir-SHADINGB904W4717, Surface Class=[Detached Shading:Building]
   **   ~~~   **   This error occurred 5 times.
   **   ~~~   ** Figure being Overlapped=Mir-SHADINGB2808W7464, Surface Class=[Detached Shading:Building]
   **   ~~~   ** Figure being Overlapped=Mir-SHADINGB838W5926, Surface Class=[Detached Shading:Building]
   **   ~~~   ** Figure being Overlapped=SHADINGB3923W9403, Surface Class=[Detached Shading:Building]
   **   ~~~   ** Figure being Overlapped=Mir-SHADINGB3252W10351, Surface Class=[Detached Shading:Building]
   *************
   ** Warning ** Too many figures [>=500000] in a shadow overlap
   **   ~~~   ** Overlapping figure=Mir-SHADINGB904W4722, Surface Class=[Detached Shading:Building]
   **   ~~~   **   This error occurred 2 times.
   **   ~~~   ** Figure being Overlapped=Mir-SHADINGB2808W7465, Surface Class=[Detached Shading:Building]
   *************
   ** Warning ** Too many figures [>=500000] in a shadow overlap
   **   ~~~   ** Overlapping figure=Mir-SHADINGB2808W7691, Surface Class=[Detached Shading:Building]
   **   ~~~   **   This error occurred 4 times.
   **   ~~~   ** Figure being Overlapped=SHADINGB4226W4517, Surface Class=[Detached Shading:Building]
   **   ~~~   ** Figure being Overlapped=Mir-SHADINGB3923W9858, Surface Class=[Detached Shading:Building]
   **   ~~~   ** Figure being Overlapped=SHADINGB3923W9681, Surface Class=[Detached Shading:Building]
   **   ~~~   ** Figure being Overlapped=Mir-SHADINGB3923W9210, Surface Class=[Detached Shading:Building]
   *************
   ** Warning ** Too many figures [>=500000] in a shadow overlap
   **   ~~~   ** Overlapping figure=SHADINGB2808W7693, Surface Class=[Detached Shading:Building]
   **   ~~~   **   This error occurred 5 times.
   **   ~~~   ** Figure being Overlapped=SHADINGB4226W4516, Surface Class=[Detached Shading:Building]
   **   ~~~   ** Figure being Overlapped=Mir-SHADINGB3923W9982, Surface Class=[Detached Shading:Building]
   **   ~~~   ** Figure being Overlapped=Mir-SHADINGB3923W9209, Surface Class=[Detached Shading:Building]
   *************
   ** Warning ** Too many figures [>=500000] in a shadow overlap
   **   ~~~   ** Overlapping figure=SHADINGB2808W7764, Surface Class=[Detached Shading:Building]
   **   ~~~   **   This error occurred 4 times.
   **   ~~~   ** Figure being Overlapped=SHADINGB4226W4512, Surface Class=[Detached Shading:Building]
   **   ~~~   ** Figure being Overlapped=Mir-SHADINGB3923W9987, Surface Class=[Detached Shading:Building]
   **   ~~~   ** Figure being Overlapped=Mir-SHADINGB398W3302, Surface Class=[Detached Shading:Building]
   **   ~~~   ** Figure being Overlapped=Mir-SHADINGB3923W9209, Surface Class=[Detached Shading:Building]
   *************
   ** Warning ** Too many figures [>=500000] in a shadow overlap
   **   ~~~   ** Overlapping figure=Mir-SHADINGB2808W7764, Surface Class=[Detached Shading:Building]
   **   ~~~   **   This error occurred 2 times.
   **   ~~~   ** Figure being Overlapped=SHADINGB4226W4518, Surface Class=[Detached Shading:Building]
   **   ~~~   ** Figure being Overlapped=Mir-SHADINGB3923W9204, Surface Class=[Detached Shading:Building]
   *************
   ** Warning ** Too many figures [>=500000] in a shadow overlap
   **   ~~~   ** Overlapping figure=Mir-SHADINGB2808W7734, Surface Class=[Detached Shading:Building]
   **   ~~~   **   This error occurred 1 times.
   **   ~~~   ** Figure being Overlapped=SHADINGB4226W4513, Surface Class=[Detached Shading:Building]
   *************
   ** Warning ** Too many figures [>=500000] in a shadow overlap
   **   ~~~   ** Overlapping figure=SHADINGB2808W7733, Surface Class=[Detached Shading:Building]
   **   ~~~   **   This error occurred 2 times.
   **   ~~~   ** Figure being Overlapped=SHADINGB4226W4512, Surface Class=[Detached Shading:Building]
   **   ~~~   ** Figure being Overlapped=Mir-SHADINGB3923W9697, Surface Class=[Detached Shading:Building]
   *************
   ** Warning ** Too many figures [>=500000] in a shadow overlap
   **   ~~~   ** Overlapping figure=Mir-SHADINGB2808W7626, Surface Class=[Detached Shading:Building]
   **   ~~~   **   This error occurred 3 times.
   **   ~~~   ** Figure being Overlapped=SHADINGB4226W4520, Surface Class=[Detached Shading:Building]
   **   ~~~   ** Figure being Overlapped=SHADINGB3923W9832, Surface Class=[Detached Shading:Building]
   *************
   ** Warning ** Too many figures [>=500000] in a shadow overlap
   **   ~~~   ** Overlapping figure=SHADINGB2808W7612, Surface Class=[Detached Shading:Building]
   **   ~~~   **   This error occurred 3 times.
   **   ~~~   ** Figure being Overlapped=SHADINGB4226W4518, Surface Class=[Detached Shading:Building]
   **   ~~~   ** Figure being Overlapped=SHADINGB3923W9402, Surface Class=[Detached Shading:Building]
   *************
   ** Warning ** Too many figures [>=500000] in a shadow overlap
   **   ~~~   ** Overlapping figure=Mir-SHADINGB797W5512, Surface Class=[Detached Shading:Building]
   **   ~~~   **   This error occurred 3 times.
   **   ~~~   ** Figure being Overlapped=SHADINGB648W5261, Surface Class=[Detached Shading:Building]
   **   ~~~   ** Figure being Overlapped=SHADINGB4226W4513, Surface Class=[Detached Shading:Building]
   **   ~~~   ** Figure being Overlapped=Mir-SHADINGB838W5911, Surface Class=[Detached Shading:Building]
   *************
   ** Warning ** Too many figures [>=500000] in a shadow overlap
   **   ~~~   ** Overlapping figure=SHADINGB797W5511, Surface Class=[Detached Shading:Building]
   **   ~~~   **   This error occurred 4 times.
   **   ~~~   ** Figure being Overlapped=SHADINGB648W5262, Surface Class=[Detached Shading:Building]
   **   ~~~   ** Figure being Overlapped=SHADINGB4226W4512, Surface Class=[Detached Shading:Building]
   **   ~~~   ** Figure being Overlapped=SHADINGB3923W9388, Surface Class=[Detached Shading:Building]
   *************
   ** Warning ** Too many figures [>=500000] in a shadow overlap
   **   ~~~   ** Overlapping figure=SHADINGB2808W7858, Surface Class=[Detached Shading:Building]
   **   ~~~   **   This error occurred 5 times.
   **   ~~~   ** Figure being Overlapped=Mir-SHADINGB648W589, Surface Class=[Detached Shading:Building]
   **   ~~~   ** Figure being Overlapped=SHADINGB3923W9678, Surface Class=[Detached Shading:Building]
   **   ~~~   ** Figure being Overlapped=Mir-SHADINGB3923W9724, Surface Class=[Detached Shading:Building]
   **   ~~~   ** Figure being Overlapped=Mir-SHADINGB838W5879, Surface Class=[Detached Shading:Building]
   **   ~~~   ** Figure being Overlapped=Mir-SHADINGB3923W9856, Surface Class=[Detached Shading:Building]
   *************
   ** Warning ** Too many figures [>=500000] in a shadow overlap
   **   ~~~   ** Overlapping figure=Mir-SHADINGB2808W7858, Surface Class=[Detached Shading:Building]
   **   ~~~   **   This error occurred 2 times.
   **   ~~~   ** Figure being Overlapped=SHADINGB648W5244, Surface Class=[Detached Shading:Building]
   **   ~~~   ** Figure being Overlapped=SHADINGB3923W9477, Surface Class=[Detached Shading:Building]
   *************
   ** Warning ** Too many figures [>=500000] in a shadow overlap
   **   ~~~   ** Overlapping figure=Mir-SHADINGB123W2420, Surface Class=[Detached Shading:Building]
   **   ~~~   **   This error occurred 4 times.
   **   ~~~   ** Figure being Overlapped=Mir-SHADINGB3429W10857, Surface Class=[Detached Shading:Building]
   **   ~~~   ** Figure being Overlapped=SHADINGB3429W10799, Surface Class=[Detached Shading:Building]
   **   ~~~   ** Figure being Overlapped=SHADINGB2206W7281, Surface Class=[Detached Shading:Building]
   **   ~~~   ** Figure being Overlapped=Mir-SHADINGB4226W4515, Surface Class=[Detached Shading:Building]
   *************
   ** Warning ** Too many figures [>=500000] in a shadow overlap
   **   ~~~   ** Overlapping figure=SHADINGB123W2416, Surface Class=[Detached Shading:Building]
   **   ~~~   **   This error occurred 2 times.
   **   ~~~   ** Figure being Overlapped=SHADINGB3429W10844, Surface Class=[Detached Shading:Building]
   **   ~~~   ** Figure being Overlapped=SHADINGB4226W4540, Surface Class=[Detached Shading:Building]
   *************
   ** Warning ** Too many figures [>=500000] in a shadow overlap
   **   ~~~   ** Overlapping figure=Mir-SHADINGB797W5555, Surface Class=[Detached Shading:Building]
   **   ~~~   **   This error occurred 1 times.
   **   ~~~   ** Figure being Overlapped=Mir-SHADINGB648W5302, Surface Class=[Detached Shading:Building]
   *************
   ** Warning ** Too many figures [>=500000] in a shadow overlap
   **   ~~~   ** Overlapping figure=SHADINGB797W5556, Surface Class=[Detached Shading:Building]
   **   ~~~   **   This error occurred 2 times.
   **   ~~~   ** Figure being Overlapped=Mir-SHADINGB648W5303, Surface Class=[Detached Shading:Building]
   **   ~~~   ** Figure being Overlapped=Mir-SHADINGB3923W9980, Surface Class=[Detached Shading:Building]
   *************
   ** Warning ** Too many figures [>=500000] in a shadow overlap
   **   ~~~   ** Overlapping figure=Mir-SHADINGB797W5535, Surface Class=[Detached Shading:Building]
   **   ~~~   **   This error occurred 3 times.
   **   ~~~   ** Figure being Overlapped=SHADINGB648W5261, Surface Class=[Detached Shading:Building]
   **   ~~~   ** Figure being Overlapped=SHADINGB398W3302, Surface Class=[Detached Shading:Building]
   **   ~~~   ** Figure being Overlapped=SHADINGB3923W9757, Surface Class=[Detached Shading:Building]
   *************
   ** Warning ** Too many figures [>=500000] in a shadow overlap
   **   ~~~   ** Overlapping figure=SHADINGB797W5534, Surface Class=[Detached Shading:Building]
   **   ~~~   **   This error occurred 2 times.
   **   ~~~   ** Figure being Overlapped=SHADINGB648W5262, Surface Class=[Detached Shading:Building]
   **   ~~~   ** Figure being Overlapped=SHADINGB398W3296, Surface Class=[Detached Shading:Building]
   *************
   ** Warning ** Too many figures [>=500000] in a shadow overlap
   **   ~~~   ** Overlapping figure=Mir-SHADINGB123W2186, Surface Class=[Detached Shading:Building]
   **   ~~~   **   This error occurred 3 times.
   **   ~~~   ** Figure being Overlapped=SHADINGB3429W10950, Surface Class=[Detached Shading:Building]
   **   ~~~   ** Figure being Overlapped=Mir-SHADINGB3923W9532, Surface Class=[Detached Shading:Building]
   **   ~~~   ** Figure being Overlapped=SHADINGB3252W10471, Surface Class=[Detached Shading:Building]
   *************
   ** Warning ** Too many figures [>=500000] in a shadow overlap
   **   ~~~   ** Overlapping figure=SHADINGB123W2725, Surface Class=[Detached Shading:Building]
   **   ~~~   **   This error occurred 2 times.
   **   ~~~   ** Figure being Overlapped=SHADINGB3429W10952, Surface Class=[Detached Shading:Building]
   **   ~~~   ** Figure being Overlapped=Mir-SHADINGB3923W9531, Surface Class=[Detached Shading:Building]
   *************
   ** Warning ** Too many figures [>=500000] in a shadow overlap
   **   ~~~   ** Overlapping figure=SHADINGB797W5337, Surface Class=[Detached Shading:Building]
   **   ~~~   **   This error occurred 2 times.
   **   ~~~   ** Figure being Overlapped=Mir-SHADINGB648W5309, Surface Class=[Detached Shading:Building]
   **   ~~~   ** Figure being Overlapped=SHADINGB3923W9786, Surface Class=[Detached Shading:Building]
   *************
   ** Warning ** Too many figures [>=500000] in a shadow overlap
   **   ~~~   ** Overlapping figure=Mir-SHADINGB797W5337, Surface Class=[Detached Shading:Building]
   **   ~~~   **   This error occurred 2 times.
   **   ~~~   ** Figure being Overlapped=Mir-SHADINGB648W5308, Surface Class=[Detached Shading:Building]
   **   ~~~   ** Figure being Overlapped=Mir-SHADINGB3923W9728, Surface Class=[Detached Shading:Building]
   *************
   ** Warning ** Too many figures [>=500000] in a shadow overlap
   **   ~~~   ** Overlapping figure=Mir-SHADINGB797W5453, Surface Class=[Detached Shading:Building]
   **   ~~~   **   This error occurred 2 times.
   **   ~~~   ** Figure being Overlapped=SHADINGB648W5260, Surface Class=[Detached Shading:Building]
   **   ~~~   ** Figure being Overlapped=SHADINGB4226W4512, Surface Class=[Detached Shading:Building]
   *************
   ** Warning ** Too many figures [>=500000] in a shadow overlap
   **   ~~~   ** Overlapping figure=SHADINGB797W5730, Surface Class=[Detached Shading:Building]
   **   ~~~   **   This error occurred 2 times.
   **   ~~~   ** Figure being Overlapped=SHADINGB648W5265, Surface Class=[Detached Shading:Building]
   **   ~~~   ** Figure being Overlapped=SHADINGB4226W4518, Surface Class=[Detached Shading:Building]
   *************
   ** Warning ** Too many figures [>=500000] in a shadow overlap
   **   ~~~   ** Overlapping figure=Mir-SHADINGB2808W7612, Surface Class=[Detached Shading:Building]
   **   ~~~   **   This error occurred 5 times.
   **   ~~~   ** Figure being Overlapped=SHADINGB4226W4567, Surface Class=[Detached Shading:Building]
   **   ~~~   ** Figure being Overlapped=SHADINGB3923W9920, Surface Class=[Detached Shading:Building]
   **   ~~~   ** Figure being Overlapped=Mir-SHADINGB648W5308, Surface Class=[Detached Shading:Building]
   **   ~~~   ** Figure being Overlapped=SHADINGB3923W9401, Surface Class=[Detached Shading:Building]
   **   ~~~   ** Figure being Overlapped=Mir-SHADINGB3923W9206, Surface Class=[Detached Shading:Building]
   *************
   ** Warning ** Too many figures [>=500000] in a shadow overlap
   **   ~~~   ** Overlapping figure=SHADINGB2808W7611, Surface Class=[Detached Shading:Building]
   **   ~~~   **   This error occurred 5 times.
   **   ~~~   ** Figure being Overlapped=SHADINGB4226W4568, Surface Class=[Detached Shading:Building]
   **   ~~~   ** Figure being Overlapped=SHADINGB3923W9258, Surface Class=[Detached Shading:Building]
   **   ~~~   ** Figure being Overlapped=SHADINGB3923W9921, Surface Class=[Detached Shading:Building]
   **   ~~~   ** Figure being Overlapped=Mir-SHADINGB648W5307, Surface Class=[Detached Shading:Building]
   **   ~~~   ** Figure being Overlapped=Mir-SHADINGB3923W9205, Surface Class=[Detached Shading:Building]
   *************
   ** Warning ** Too many figures [>=500000] in a shadow overlap
   **   ~~~   ** Overlapping figure=Mir-SHADINGB797W5390, Surface Class=[Detached Shading:Building]
   **   ~~~   **   This error occurred 1 times.
   **   ~~~   ** Figure being Overlapped=Mir-SHADINGB648W5310, Surface Class=[Detached Shading:Building]
   *************
   ** Warning ** Too many figures [>=500000] in a shadow overlap
   **   ~~~   ** Overlapping figure=SHADINGB797W5389, Surface Class=[Detached Shading:Building]
   **   ~~~   **   This error occurred 2 times.
   **   ~~~   ** Figure being Overlapped=Mir-SHADINGB648W5309, Surface Class=[Detached Shading:Building]
   **   ~~~   ** Figure being Overlapped=Mir-SHADINGB648W5304, Surface Class=[Detached Shading:Building]
   *************
   ** Warning ** Too many figures [>=500000] in a shadow overlap
   **   ~~~   ** Overlapping figure=SHADINGB2808W7853, Surface Class=[Detached Shading:Building]
   **   ~~~   **   This error occurred 1 times.
   **   ~~~   ** Figure being Overlapped=Mir-SHADINGB838W5896, Surface Class=[Detached Shading:Building]
   *************
   ** Warning ** Too many figures [>=500000] in a shadow overlap
   **   ~~~   ** Overlapping figure=Mir-SHADINGB2808W7853, Surface Class=[Detached Shading:Building]
   **   ~~~   **   This error occurred 2 times.
   **   ~~~   ** Figure being Overlapped=Mir-SHADINGB838W5893, Surface Class=[Detached Shading:Building]
   **   ~~~   ** Figure being Overlapped=SHADINGB3923W9573, Surface Class=[Detached Shading:Building]
   *************
   ** Warning ** Too many figures [>=500000] in a shadow overlap
   **   ~~~   ** Overlapping figure=SHADINGB2808W7523, Surface Class=[Detached Shading:Building]
   **   ~~~   **   This error occurred 1 times.
   **   ~~~   ** Figure being Overlapped=SHADINGB3429W10950, Surface Class=[Detached Shading:Building]
   *************
   ** Warning ** Too many figures [>=500000] in a shadow overlap
   **   ~~~   ** Overlapping figure=Mir-SHADINGB2808W7523, Surface Class=[Detached Shading:Building]
   **   ~~~   **   This error occurred 2 times.
   **   ~~~   ** Figure being Overlapped=SHADINGB3429W10951, Surface Class=[Detached Shading:Building]
   **   ~~~   ** Figure being Overlapped=Mir-SHADINGB3923W9547, Surface Class=[Detached Shading:Building]
   *************
   ** Warning ** Too many figures [>=500000] in a shadow overlap
   **   ~~~   ** Overlapping figure=SHADINGB2808W7839, Surface Class=[Detached Shading:Building]
   **   ~~~   **   This error occurred 3 times.
   **   ~~~   ** Figure being Overlapped=SHADINGB838W5928, Surface Class=[Detached Shading:Building]
   **   ~~~   ** Figure being Overlapped=SHADINGB3923W9473, Surface Class=[Detached Shading:Building]
   *************
   ** Warning ** Too many figures [>=500000] in a shadow overlap
   **   ~~~   ** Overlapping figure=Mir-SHADINGB2808W7839, Surface Class=[Detached Shading:Building]
   **   ~~~   **   This error occurred 3 times.
   **   ~~~   ** Figure being Overlapped=SHADINGB838W5929, Surface Class=[Detached Shading:Building]
   **   ~~~   ** Figure being Overlapped=SHADINGB3923W9476, Surface Class=[Detached Shading:Building]
   *************
   ** Warning ** Too many figures [>=500000] in a shadow overlap
   **   ~~~   ** Overlapping figure=SHADINGB797W5587, Surface Class=[Detached Shading:Building]
   **   ~~~   **   This error occurred 2 times.
   **   ~~~   ** Figure being Overlapped=SHADINGB4226W4512, Surface Class=[Detached Shading:Building]
   **   ~~~   ** Figure being Overlapped=SHADINGB648W5263, Surface Class=[Detached Shading:Building]
   *************
   ** Warning ** Too many figures [>=500000] in a shadow overlap
   **   ~~~   ** Overlapping figure=Mir-SHADINGB797W5587, Surface Class=[Detached Shading:Building]
   **   ~~~   **   This error occurred 4 times.
   **   ~~~   ** Figure being Overlapped=SHADINGB4226W4518, Surface Class=[Detached Shading:Building]
   **   ~~~   ** Figure being Overlapped=SHADINGB648W5264, Surface Class=[Detached Shading:Building]
   **   ~~~   ** Figure being Overlapped=SHADINGB3923W9570, Surface Class=[Detached Shading:Building]
   *************
   ** Warning ** Too many figures [>=500000] in a shadow overlap
   **   ~~~   ** Overlapping figure=Mir-SHADINGB2206W6908, Surface Class=[Detached Shading:Building]
   **   ~~~   **   This error occurred 1 times.
   **   ~~~   ** Figure being Overlapped=Mir-SHADINGB3923W9969, Surface Class=[Detached Shading:Building]
   *************
   ** Warning ** Too many figures [>=500000] in a shadow overlap
   **   ~~~   ** Overlapping figure=SHADINGB2206W6938, Surface Class=[Detached Shading:Building]
   **   ~~~   **   This error occurred 1 times.
   **   ~~~   ** Figure being Overlapped=SHADINGB3923W9961, Surface Class=[Detached Shading:Building]
   *************
   ** Warning ** Too many figures [>=500000] in a shadow overlap
   **   ~~~   ** Overlapping figure=Mir-SHADINGB797W5730, Surface Class=[Detached Shading:Building]
   **   ~~~   **   This error occurred 3 times.
   **   ~~~   ** Figure being Overlapped=Mir-SHADINGB3923W9213, Surface Class=[Detached Shading:Building]
   **   ~~~   ** Figure being Overlapped=Mir-SHADINGB3923W9548, Surface Class=[Detached Shading:Building]
   **   ~~~   ** Figure being Overlapped=SHADINGB3923W9543, Surface Class=[Detached Shading:Building]
   *************
   ** Warning ** Too many figures [>=500000] in a shadow overlap
   **   ~~~   ** Overlapping figure=SHADINGB797W5452, Surface Class=[Detached Shading:Building]
   **   ~~~   **   This error occurred 3 times.
   **   ~~~   ** Figure being Overlapped=Mir-SHADINGB3923W9212, Surface Class=[Detached Shading:Building]
   **   ~~~   ** Figure being Overlapped=SHADINGB3923W9559, Surface Class=[Detached Shading:Building]
   **   ~~~   ** Figure being Overlapped=SHADINGB3923W9546, Surface Class=[Detached Shading:Building]
   *************
   ** Warning ** Too many figures [>=500000] in a shadow overlap
   **   ~~~   ** Overlapping figure=SHADINGB2808W7852, Surface Class=[Detached Shading:Building]
   **   ~~~   **   This error occurred 3 times.
   **   ~~~   ** Figure being Overlapped=SHADINGB4226W4562, Surface Class=[Detached Shading:Building]
   **   ~~~   ** Figure being Overlapped=SHADINGB838W5928, Surface Class=[Detached Shading:Building]
   **   ~~~   ** Figure being Overlapped=Mir-SHADINGB3923W9517, Surface Class=[Detached Shading:Building]
   *************
   ** Warning ** Too many figures [>=500000] in a shadow overlap
   **   ~~~   ** Overlapping figure=Mir-SHADINGB2808W7852, Surface Class=[Detached Shading:Building]
   **   ~~~   **   This error occurred 2 times.
   **   ~~~   ** Figure being Overlapped=SHADINGB4226W4563, Surface Class=[Detached Shading:Building]
   **   ~~~   ** Figure being Overlapped=SHADINGB838W5929, Surface Class=[Detached Shading:Building]
   *************
   ** Warning ** Too many figures [>=500000] in a shadow overlap
   **   ~~~   ** Overlapping figure=SHADINGB2808W7585, Surface Class=[Detached Shading:Building]
   **   ~~~   **   This error occurred 3 times.
   **   ~~~   ** Figure being Overlapped=Mir-SHADINGB648W589, Surface Class=[Detached Shading:Building]
   **   ~~~   ** Figure being Overlapped=SHADINGB3923W9787, Surface Class=[Detached Shading:Building]
   *************
   ** Warning ** Too many figures [>=500000] in a shadow overlap
   **   ~~~   ** Overlapping figure=Mir-SHADINGB2808W7585, Surface Class=[Detached Shading:Building]
   **   ~~~   **   This error occurred 2 times.
   **   ~~~   ** Figure being Overlapped=SHADINGB648W5244, Surface Class=[Detached Shading:Building]
   **   ~~~   ** Figure being Overlapped=SHADINGB3923W9798, Surface Class=[Detached Shading:Building]
   *************
   ** Warning ** Too many figures [>=500000] in a shadow overlap
   **   ~~~   ** Overlapping figure=Mir-SHADINGB123W2644, Surface Class=[Detached Shading:Building]
   **   ~~~   **   This error occurred 4 times.
   **   ~~~   ** Figure being Overlapped=Mir-SHADINGB648W589, Surface Class=[Detached Shading:Building]
   **   ~~~   ** Figure being Overlapped=Mir-SHADINGB398W2830, Surface Class=[Detached Shading:Building]
   **   ~~~   ** Figure being Overlapped=Mir-SHADINGB3923W9548, Surface Class=[Detached Shading:Building]
   **   ~~~   ** Figure being Overlapped=Mir-SHADINGB3252W10360, Surface Class=[Detached Shading:Building]
   *************
   ** Warning ** Too many figures [>=500000] in a shadow overlap
   **   ~~~   ** Overlapping figure=SHADINGB123W2645, Surface Class=[Detached Shading:Building]
   **   ~~~   **   This error occurred 2 times.
   **   ~~~   ** Figure being Overlapped=SHADINGB648W5244, Surface Class=[Detached Shading:Building]
   **   ~~~   ** Figure being Overlapped=Mir-SHADINGB398W2827, Surface Class=[Detached Shading:Building]
   *************
   ** Warning ** Too many figures [>=500000] in a shadow overlap
   **   ~~~   ** Overlapping figure=SHADINGB2206W6860, Surface Class=[Detached Shading:Building]
   **   ~~~   **   This error occurred 1 times.
   **   ~~~   ** Figure being Overlapped=SHADINGB648W610, Surface Class=[Detached Shading:Building]
   *************
   ** Warning ** Too many figures [>=500000] in a shadow overlap
   **   ~~~   ** Overlapping figure=Mir-SHADINGB2206W6860, Surface Class=[Detached Shading:Building]
   **   ~~~   **   This error occurred 1 times.
   **   ~~~   ** Figure being Overlapped=Mir-SHADINGB648W629, Surface Class=[Detached Shading:Building]
   *************
   ** Warning ** Too many figures [>=500000] in a shadow overlap
   **   ~~~   ** Overlapping figure=Mir-SHADINGB4205W4959, Surface Class=[Detached Shading:Building]
   **   ~~~   **   This error occurred 1 times.
   **   ~~~   ** Figure being Overlapped=SHADINGB3923W9490, Surface Class=[Detached Shading:Building]
   *************
   ** Warning ** Too many figures [>=500000] in a shadow overlap
   **   ~~~   ** Overlapping figure=SHADINGB4205W5008, Surface Class=[Detached Shading:Building]
   **   ~~~   **   This error occurred 1 times.
   **   ~~~   ** Figure being Overlapped=SHADINGB3923W9491, Surface Class=[Detached Shading:Building]
   *************
   ** Warning ** Too many figures [>=500000] in a shadow overlap
   **   ~~~   ** Overlapping figure=Mir-SHADINGB797W5614, Surface Class=[Detached Shading:Building]
   **   ~~~   **   This error occurred 4 times.
   **   ~~~   ** Figure being Overlapped=SHADINGB3923W9434, Surface Class=[Detached Shading:Building]
   **   ~~~   ** Figure being Overlapped=SHADINGB3923W9478, Surface Class=[Detached Shading:Building]
   **   ~~~   ** Figure being Overlapped=Mir-SHADINGB3923W9861, Surface Class=[Detached Shading:Building]
   **   ~~~   ** Figure being Overlapped=SHADINGB398W2971, Surface Class=[Detached Shading:Building]
   *************
   ** Warning ** Too many figures [>=500000] in a shadow overlap
   **   ~~~   ** Overlapping figure=SHADINGB797W5611, Surface Class=[Detached Shading:Building]
   **   ~~~   **   This error occurred 1 times.
   **   ~~~   ** Figure being Overlapped=SHADINGB3923W9433, Surface Class=[Detached Shading:Building]
   *************
   ** Warning ** Too many figures [>=500000] in a shadow overlap
   **   ~~~   ** Overlapping figure=SHADINGB123W2382, Surface Class=[Detached Shading:Building]
   **   ~~~   **   This error occurred 2 times.
   **   ~~~   ** Figure being Overlapped=Mir-SHADINGB3923W9476, Surface Class=[Detached Shading:Building]
   **   ~~~   ** Figure being Overlapped=SHADINGB3923W9337, Surface Class=[Detached Shading:Building]
   *************
   ** Warning ** Too many figures [>=500000] in a shadow overlap
   **   ~~~   ** Overlapping figure=Mir-SHADINGB123W2382, Surface Class=[Detached Shading:Building]
   **   ~~~   **   This error occurred 1 times.
   **   ~~~   ** Figure being Overlapped=Mir-SHADINGB3923W9475, Surface Class=[Detached Shading:Building]
   *************
   ** Warning ** Too many figures [>=500000] in a shadow overlap
   **   ~~~   ** Overlapping figure=SHADINGB123W2690, Surface Class=[Detached Shading:Building]
   **   ~~~   **   This error occurred 3 times.
   **   ~~~   ** Figure being Overlapped=Mir-SHADINGB3923W9474, Surface Class=[Detached Shading:Building]
   **   ~~~   ** Figure being Overlapped=Mir-SHADINGB398W2832, Surface Class=[Detached Shading:Building]
   **   ~~~   ** Figure being Overlapped=SHADINGB3923W9547, Surface Class=[Detached Shading:Building]
   *************
   ** Warning ** Too many figures [>=500000] in a shadow overlap
   **   ~~~   ** Overlapping figure=Mir-SHADINGB123W2690, Surface Class=[Detached Shading:Building]
   **   ~~~   **   This error occurred 4 times.
   **   ~~~   ** Figure being Overlapped=Mir-SHADINGB3923W9473, Surface Class=[Detached Shading:Building]
   **   ~~~   ** Figure being Overlapped=Mir-SHADINGB398W2830, Surface Class=[Detached Shading:Building]
   **   ~~~   ** Figure being Overlapped=Mir-SHADINGB3923W9857, Surface Class=[Detached Shading:Building]
   **   ~~~   ** Figure being Overlapped=SHADINGB3923W9548, Surface Class=[Detached Shading:Building]
   *************
   ** Warning ** Too many figures [>=500000] in a shadow overlap
   **   ~~~   ** Overlapping figure=SHADINGB123W2185, Surface Class=[Detached Shading:Building]
   **   ~~~   **   This error occurred 2 times.
   **   ~~~   ** Figure being Overlapped=Mir-SHADINGB2206W6752, Surface Class=[Detached Shading:Building]
   **   ~~~   ** Figure being Overlapped=SHADINGB3923W9545, Surface Class=[Detached Shading:Building]
   *************
   ** Warning ** Too many figures [>=500000] in a shadow overlap
   **   ~~~   ** Overlapping figure=Mir-SHADINGB123W2185, Surface Class=[Detached Shading:Building]
   **   ~~~   **   This error occurred 2 times.
   **   ~~~   ** Figure being Overlapped=Mir-SHADINGB2206W7178, Surface Class=[Detached Shading:Building]
   **   ~~~   ** Figure being Overlapped=SHADINGB648W5263, Surface Class=[Detached Shading:Building]
   *************
   ** Warning ** Too many figures [>=500000] in a shadow overlap
   **   ~~~   ** Overlapping figure=SHADINGB123W2355, Surface Class=[Detached Shading:Building]
   **   ~~~   **   This error occurred 5 times.
   **   ~~~   ** Figure being Overlapped=SHADINGB2206W6726, Surface Class=[Detached Shading:Building]
   **   ~~~   ** Figure being Overlapped=Mir-SHADINGB3923W9367, Surface Class=[Detached Shading:Building]
   **   ~~~   ** Figure being Overlapped=Mir-SHADINGB4226W4564, Surface Class=[Detached Shading:Building]
   **   ~~~   ** Figure being Overlapped=Mir-SHADINGB2206W7262, Surface Class=[Detached Shading:Building]
   *************
   ** Warning ** Too many figures [>=500000] in a shadow overlap
   **   ~~~   ** Overlapping figure=SHADINGB123W2356, Surface Class=[Detached Shading:Building]
   **   ~~~   **   This error occurred 4 times.
   **   ~~~   ** Figure being Overlapped=SHADINGB2206W6727, Surface Class=[Detached Shading:Building]
   **   ~~~   ** Figure being Overlapped=SHADINGB3923W9338, Surface Class=[Detached Shading:Building]
   **   ~~~   ** Figure being Overlapped=Mir-SHADINGB4226W4587, Surface Class=[Detached Shading:Building]
   *************
   ** Warning ** Too many figures [>=500000] in a shadow overlap
   **   ~~~   ** Overlapping figure=SHADINGB2863W8350, Surface Class=[Detached Shading:Building]
   **   ~~~   **   This error occurred 3 times.
   **   ~~~   ** Figure being Overlapped=SHADINGB3923W9475, Surface Class=[Detached Shading:Building]
   **   ~~~   ** Figure being Overlapped=Mir-SHADINGB3923W9728, Surface Class=[Detached Shading:Building]
   **   ~~~   ** Figure being Overlapped=SHADINGB3923W9491, Surface Class=[Detached Shading:Building]
   *************
   ** Warning ** Too many figures [>=500000] in a shadow overlap
   **   ~~~   ** Overlapping figure=Mir-SHADINGB2863W8350, Surface Class=[Detached Shading:Building]
   **   ~~~   **   This error occurred 2 times.
   **   ~~~   ** Figure being Overlapped=SHADINGB3923W9478, Surface Class=[Detached Shading:Building]
   **   ~~~   ** Figure being Overlapped=Mir-SHADINGB3923W9474, Surface Class=[Detached Shading:Building]
   *************
   ** Warning ** Too many figures [>=500000] in a shadow overlap
   **   ~~~   ** Overlapping figure=SHADINGB797W5614, Surface Class=[Detached Shading:Building]
   **   ~~~   **   This error occurred 3 times.
   **   ~~~   ** Figure being Overlapped=SHADINGB3923W9475, Surface Class=[Detached Shading:Building]
   **   ~~~   ** Figure being Overlapped=Mir-SHADINGB3923W9860, Surface Class=[Detached Shading:Building]
   **   ~~~   ** Figure being Overlapped=Mir-SHADINGB398W3457, Surface Class=[Detached Shading:Building]
   *************
   ** Warning ** Too many figures [>=500000] in a shadow overlap
   **   ~~~   ** Overlapping figure=SHADINGB2206W6983, Surface Class=[Detached Shading:Building]
   **   ~~~   **   This error occurred 1 times.
   **   ~~~   ** Figure being Overlapped=Mir-SHADINGB3923W9486, Surface Class=[Detached Shading:Building]
   *************
   ** Warning ** Too many figures [>=500000] in a shadow overlap
   **   ~~~   ** Overlapping figure=Mir-SHADINGB2206W6983, Surface Class=[Detached Shading:Building]
   **   ~~~   **   This error occurred 1 times.
   **   ~~~   ** Figure being Overlapped=Mir-SHADINGB3923W9487, Surface Class=[Detached Shading:Building]
   *************
   ** Warning ** Too many figures [>=500000] in a shadow overlap
   **   ~~~   ** Overlapping figure=Mir-SHADINGB2206W6997, Surface Class=[Detached Shading:Building]
   **   ~~~   **   This error occurred 4 times.
   **   ~~~   ** Figure being Overlapped=SHADINGB3923W9477, Surface Class=[Detached Shading:Building]
   **   ~~~   ** Figure being Overlapped=SHADINGB3923W9475, Surface Class=[Detached Shading:Building]
   *************
   ** Warning ** Too many figures [>=500000] in a shadow overlap
   **   ~~~   ** Overlapping figure=Mir-SHADINGB2206W6996, Surface Class=[Detached Shading:Building]
   **   ~~~   **   This error occurred 2 times.
   **   ~~~   ** Figure being Overlapped=Mir-SHADINGB3923W9517, Surface Class=[Detached Shading:Building]
   *************
   ** Warning ** Too many figures [>=500000] in a shadow overlap
   **   ~~~   ** Overlapping figure=Mir-SHADINGB123W2203, Surface Class=[Detached Shading:Building]
   **   ~~~   **   This error occurred 5 times.
   **   ~~~   ** Figure being Overlapped=SHADINGB3923W9477, Surface Class=[Detached Shading:Building]
   **   ~~~   ** Figure being Overlapped=SHADINGB3923W9786, Surface Class=[Detached Shading:Building]
   **   ~~~   ** Figure being Overlapped=SHADINGB2206W7268, Surface Class=[Detached Shading:Building]
   **   ~~~   ** Figure being Overlapped=Mir-SHADINGB3923W9548, Surface Class=[Detached Shading:Building]
   **   ~~~   ** Figure being Overlapped=Mir-SHADINGB398W2855, Surface Class=[Detached Shading:Building]
   *************
   ** Warning ** Too many figures [>=500000] in a shadow overlap
   **   ~~~   ** Overlapping figure=Mir-SHADINGB123W2689, Surface Class=[Detached Shading:Building]
   **   ~~~   **   This error occurred 3 times.
   **   ~~~   ** Figure being Overlapped=Mir-SHADINGB3923W9517, Surface Class=[Detached Shading:Building]
   **   ~~~   ** Figure being Overlapped=Mir-SHADINGB3252W10327, Surface Class=[Detached Shading:Building]
   *************
   ** Warning ** Too many figures [>=500000] in a shadow overlap
   **   ~~~   ** Overlapping figure=Mir-SHADINGB4205W4981, Surface Class=[Detached Shading:Building]
   **   ~~~   **   This error occurred 3 times.
   **   ~~~   ** Figure being Overlapped=WALL11422, Surface Class=[Wall]
   **   ~~~   ** Figure being Overlapped=Mir-SHADINGB3923W9366, Surface Class=[Detached Shading:Building]
   **   ~~~   ** Figure being Overlapped=Mir-SHADINGB3923W9742, Surface Class=[Detached Shading:Building]
   *************
   ** Warning ** Too many figures [>=500000] in a shadow overlap
   **   ~~~   ** Overlapping figure=SHADINGB4205W4984, Surface Class=[Detached Shading:Building]
   **   ~~~   **   This error occurred 3 times.
   **   ~~~   ** Figure being Overlapped=WALL11425, Surface Class=[Wall]
   **   ~~~   ** Figure being Overlapped=Mir-SHADINGB3923W9365, Surface Class=[Detached Shading:Building]
   **   ~~~   ** Figure being Overlapped=Mir-SHADINGB3923W9739, Surface Class=[Detached Shading:Building]
   *************
   ** Warning ** Too many figures [>=500000] in a shadow overlap
   **   ~~~   ** Overlapping figure=SHADINGB4205W5005, Surface Class=[Detached Shading:Building]
   **   ~~~   **   This error occurred 1 times.
   **   ~~~   ** Figure being Overlapped=WALL11422, Surface Class=[Wall]
   *************
   ** Warning ** Too many figures [>=500000] in a shadow overlap
   **   ~~~   ** Overlapping figure=Mir-SHADINGB4205W5005, Surface Class=[Detached Shading:Building]
   **   ~~~   **   This error occurred 2 times.
   **   ~~~   ** Figure being Overlapped=WALL11425, Surface Class=[Wall]
   **   ~~~   ** Figure being Overlapped=Mir-SHADINGB3923W9244, Surface Class=[Detached Shading:Building]
   *************
   ** Warning ** Too many figures [>=500000] in a shadow overlap
   **   ~~~   ** Overlapping figure=Mir-SHADINGB123W2385, Surface Class=[Detached Shading:Building]
   **   ~~~   **   This error occurred 4 times.
   **   ~~~   ** Figure being Overlapped=SHADINGB3923W9476, Surface Class=[Detached Shading:Building]
   **   ~~~   ** Figure being Overlapped=Mir-SHADINGB3923W9625, Surface Class=[Detached Shading:Building]
   **   ~~~   ** Figure being Overlapped=Mir-SHADINGB2206W7248, Surface Class=[Detached Shading:Building]
   **   ~~~   ** Figure being Overlapped=SHADINGB3923W9787, Surface Class=[Detached Shading:Building]
   *************
   ** Warning ** Too many figures [>=500000] in a shadow overlap
   **   ~~~   ** Overlapping figure=SHADINGB123W2386, Surface Class=[Detached Shading:Building]
   **   ~~~   **   This error occurred 5 times.
   **   ~~~   ** Figure being Overlapped=SHADINGB3923W9475, Surface Class=[Detached Shading:Building]
   **   ~~~   ** Figure being Overlapped=Mir-SHADINGB3923W9624, Surface Class=[Detached Shading:Building]
   **   ~~~   ** Figure being Overlapped=SHADINGB3923W9476, Surface Class=[Detached Shading:Building]
   **   ~~~   ** Figure being Overlapped=Mir-SHADINGB2206W7024, Surface Class=[Detached Shading:Building]
   **   ~~~   ** Figure being Overlapped=SHADINGB3923W9797, Surface Class=[Detached Shading:Building]
   *************
   ** Warning ** Too many figures [>=500000] in a shadow overlap
   **   ~~~   ** Overlapping figure=SHADINGB123W2262, Surface Class=[Detached Shading:Building]
   **   ~~~   **   This error occurred 3 times.
   **   ~~~   ** Figure being Overlapped=SHADINGB3923W9476, Surface Class=[Detached Shading:Building]
   **   ~~~   ** Figure being Overlapped=Mir-SHADINGB3923W9243, Surface Class=[Detached Shading:Building]
   **   ~~~   ** Figure being Overlapped=Mir-SHADINGB4226W4514, Surface Class=[Detached Shading:Building]
   *************
   ** Warning ** Too many figures [>=500000] in a shadow overlap
   **   ~~~   ** Overlapping figure=Mir-SHADINGB123W2262, Surface Class=[Detached Shading:Building]
   **   ~~~   **   This error occurred 3 times.
   **   ~~~   ** Figure being Overlapped=SHADINGB3923W9475, Surface Class=[Detached Shading:Building]
   **   ~~~   ** Figure being Overlapped=SHADINGB3923W9787, Surface Class=[Detached Shading:Building]
   **   ~~~   ** Figure being Overlapped=Mir-SHADINGB4226W4512, Surface Class=[Detached Shading:Building]
   *************
   ** Warning ** Too many figures [>=500000] in a shadow overlap
   **   ~~~   ** Overlapping figure=Mir-SHADINGB500W4003, Surface Class=[Detached Shading:Building]
   **   ~~~   **   This error occurred 2 times.
   **   ~~~   ** Figure being Overlapped=SHADINGB3923W9679, Surface Class=[Detached Shading:Building]
   **   ~~~   ** Figure being Overlapped=Mir-SHADINGB3923W9628, Surface Class=[Detached Shading:Building]
   *************
   ** Warning ** Too many figures [>=500000] in a shadow overlap
   **   ~~~   ** Overlapping figure=SHADINGB500W4278, Surface Class=[Detached Shading:Building]
   **   ~~~   **   This error occurred 2 times.
   **   ~~~   ** Figure being Overlapped=SHADINGB3923W9760, Surface Class=[Detached Shading:Building]
   **   ~~~   ** Figure being Overlapped=Mir-SHADINGB3923W9308, Surface Class=[Detached Shading:Building]
   *************
   ** Warning ** Too many figures [>=500000] in a shadow overlap
   **   ~~~   ** Overlapping figure=Mir-SHADINGB500W3995, Surface Class=[Detached Shading:Building]
   **   ~~~   **   This error occurred 1 times.
   **   ~~~   ** Figure being Overlapped=SHADINGB3923W9680, Surface Class=[Detached Shading:Building]
   *************
   ** Warning ** Too many figures [>=500000] in a shadow overlap
   **   ~~~   ** Overlapping figure=SHADINGB500W4271, Surface Class=[Detached Shading:Building]
   **   ~~~   **   This error occurred 4 times.
   **   ~~~   ** Figure being Overlapped=SHADINGB3923W9679, Surface Class=[Detached Shading:Building]
   **   ~~~   ** Figure being Overlapped=Mir-SHADINGB4226W4562, Surface Class=[Detached Shading:Building]
   *************
   ** Warning ** Too many figures [>=500000] in a shadow overlap
   **   ~~~   ** Overlapping figure=Mir-SHADINGB2808W7507, Surface Class=[Detached Shading:Building]
   **   ~~~   **   This error occurred 3 times.
   **   ~~~   ** Figure being Overlapped=Mir-SHADINGB3923W9987, Surface Class=[Detached Shading:Building]
   **   ~~~   ** Figure being Overlapped=Mir-SHADINGB398W2969, Surface Class=[Detached Shading:Building]
   **   ~~~   ** Figure being Overlapped=SHADINGB3923W9260, Surface Class=[Detached Shading:Building]
   *************
   ** Warning ** Too many figures [>=500000] in a shadow overlap
   **   ~~~   ** Overlapping figure=SHADINGB2808W7451, Surface Class=[Detached Shading:Building]
   **   ~~~   **   This error occurred 3 times.
   **   ~~~   ** Figure being Overlapped=SHADINGB3923W3659, Surface Class=[Detached Shading:Building]
   **   ~~~   ** Figure being Overlapped=Mir-SHADINGB398W3507, Surface Class=[Detached Shading:Building]
   **   ~~~   ** Figure being Overlapped=SHADINGB398W2835, Surface Class=[Detached Shading:Building]
   *************
   ** Warning ** Too many figures [>=500000] in a shadow overlap
   **   ~~~   ** Overlapping figure=SHADINGB2808W7446, Surface Class=[Detached Shading:Building]
   **   ~~~   **   This error occurred 1 times.
   **   ~~~   ** Figure being Overlapped=SHADINGB3923W9474, Surface Class=[Detached Shading:Building]
   *************
   ** Warning ** Too many figures [>=500000] in a shadow overlap
   **   ~~~   ** Overlapping figure=Mir-SHADINGB2808W7446, Surface Class=[Detached Shading:Building]
   **   ~~~   **   This error occurred 2 times.
   **   ~~~   ** Figure being Overlapped=SHADINGB3923W9473, Surface Class=[Detached Shading:Building]
   **   ~~~   ** Figure being Overlapped=SHADINGB4226W4517, Surface Class=[Detached Shading:Building]
   *************
   ** Warning ** Too many figures [>=500000] in a shadow overlap
   **   ~~~   ** Overlapping figure=Mir-SHADINGB4205W4954, Surface Class=[Detached Shading:Building]
   **   ~~~   **   This error occurred 2 times.
   **   ~~~   ** Figure being Overlapped=Mir-SHADINGB3923W9984, Surface Class=[Detached Shading:Building]
   **   ~~~   ** Figure being Overlapped=WALL11422, Surface Class=[Wall]
   *************
   ** Warning ** Too many figures [>=500000] in a shadow overlap
   **   ~~~   ** Overlapping figure=SHADINGB4205W5034, Surface Class=[Detached Shading:Building]
   **   ~~~   **   This error occurred 2 times.
   **   ~~~   ** Figure being Overlapped=Mir-SHADINGB3923W9983, Surface Class=[Detached Shading:Building]
   **   ~~~   ** Figure being Overlapped=WALL11425, Surface Class=[Wall]
   *************
   ** Warning ** Too many figures [>=500000] in a shadow overlap
   **   ~~~   ** Overlapping figure=SHADINGB797W5663, Surface Class=[Detached Shading:Building]
   **   ~~~   **   This error occurred 4 times.
   **   ~~~   ** Figure being Overlapped=Mir-SHADINGB3923W9984, Surface Class=[Detached Shading:Building]
   **   ~~~   ** Figure being Overlapped=Mir-SHADINGB3923W9502, Surface Class=[Detached Shading:Building]
   **   ~~~   ** Figure being Overlapped=SHADINGB648W5264, Surface Class=[Detached Shading:Building]
   *************
   ** Warning ** Too many figures [>=500000] in a shadow overlap
   **   ~~~   ** Overlapping figure=Mir-SHADINGB797W5663, Surface Class=[Detached Shading:Building]
   **   ~~~   **   This error occurred 3 times.
   **   ~~~   ** Figure being Overlapped=Mir-SHADINGB3923W9983, Surface Class=[Detached Shading:Building]
   **   ~~~   ** Figure being Overlapped=Mir-SHADINGB3923W9501, Surface Class=[Detached Shading:Building]
   **   ~~~   ** Figure being Overlapped=Mir-SHADINGB648W595, Surface Class=[Detached Shading:Building]
   *************
   ** Warning ** Too many figures [>=500000] in a shadow overlap
   **   ~~~   ** Overlapping figure=Mir-SHADINGB2808W7447, Surface Class=[Detached Shading:Building]
   **   ~~~   **   This error occurred 2 times.
   **   ~~~   ** Figure being Overlapped=Mir-SHADINGB3923W9987, Surface Class=[Detached Shading:Building]
   **   ~~~   ** Figure being Overlapped=Mir-SHADINGB4226W4491, Surface Class=[Detached Shading:Building]
   *************
   ** Warning ** Too many figures [>=500000] in a shadow overlap
   **   ~~~   ** Overlapping figure=SHADINGB2808W7989, Surface Class=[Detached Shading:Building]
   **   ~~~   **   This error occurred 2 times.
   **   ~~~   ** Figure being Overlapped=SHADINGB3923W3659, Surface Class=[Detached Shading:Building]
   **   ~~~   ** Figure being Overlapped=SHADINGB3923W9641, Surface Class=[Detached Shading:Building]
   *************
   ** Warning ** Too many figures [>=500000] in a shadow overlap
   **   ~~~   ** Overlapping figure=SHADINGB2808W7506, Surface Class=[Detached Shading:Building]
   **   ~~~   **   This error occurred 4 times.
   **   ~~~   ** Figure being Overlapped=SHADINGB3923W9669, Surface Class=[Detached Shading:Building]
   **   ~~~   ** Figure being Overlapped=SHADINGB3923W9829, Surface Class=[Detached Shading:Building]
   **   ~~~   ** Figure being Overlapped=Mir-SHADINGB838W5930, Surface Class=[Detached Shading:Building]
   **   ~~~   ** Figure being Overlapped=SHADINGB3923W9919, Surface Class=[Detached Shading:Building]
   *************
   ** Warning ** Too many figures [>=500000] in a shadow overlap
   **   ~~~   ** Overlapping figure=Mir-SHADINGB2808W7506, Surface Class=[Detached Shading:Building]
   **   ~~~   **   This error occurred 4 times.
   **   ~~~   ** Figure being Overlapped=SHADINGB3923W9670, Surface Class=[Detached Shading:Building]
   **   ~~~   ** Figure being Overlapped=SHADINGB3429W10944, Surface Class=[Detached Shading:Building]
   **   ~~~   ** Figure being Overlapped=SHADINGB3923W9449, Surface Class=[Detached Shading:Building]
   **   ~~~   ** Figure being Overlapped=SHADINGB3923W9870, Surface Class=[Detached Shading:Building]
   *************
   ** Warning ** Too many figures [>=500000] in a shadow overlap
   **   ~~~   ** Overlapping figure=Mir-SHADINGB500W4200, Surface Class=[Detached Shading:Building]
   **   ~~~   **   This error occurred 2 times.
   **   ~~~   ** Figure being Overlapped=SHADINGB838W5930, Surface Class=[Detached Shading:Building]
   **   ~~~   ** Figure being Overlapped=SHADINGB4247W4438, Surface Class=[Detached Shading:Building]
   *************
   ** Warning ** Too many figures [>=500000] in a shadow overlap
   **   ~~~   ** Overlapping figure=SHADINGB500W4198, Surface Class=[Detached Shading:Building]
   **   ~~~   **   This error occurred 1 times.
   **   ~~~   ** Figure being Overlapped=SHADINGB838W5926, Surface Class=[Detached Shading:Building]
   *************
   ** Warning ** Too many figures [>=500000] in a shadow overlap
   **   ~~~   ** Overlapping figure=Mir-SHADINGB2808W8065, Surface Class=[Detached Shading:Building]
   **   ~~~   **   This error occurred 6 times.
   **   ~~~   ** Figure being Overlapped=Mir-SHADINGB4226W4492, Surface Class=[Detached Shading:Building]
   **   ~~~   ** Figure being Overlapped=Mir-SHADINGB398W3498, Surface Class=[Detached Shading:Building]
   **   ~~~   ** Figure being Overlapped=SHADINGB3923W9643, Surface Class=[Detached Shading:Building]
   **   ~~~   ** Figure being Overlapped=Mir-SHADINGB3923W9844, Surface Class=[Detached Shading:Building]
   **   ~~~   ** Figure being Overlapped=Mir-SHADINGB3923W9434, Surface Class=[Detached Shading:Building]
   *************
   ** Warning ** Too many figures [>=500000] in a shadow overlap
   **   ~~~   ** Overlapping figure=SHADINGB2808W8066, Surface Class=[Detached Shading:Building]
   **   ~~~   **   This error occurred 3 times.
   **   ~~~   ** Figure being Overlapped=Mir-SHADINGB4226W4623, Surface Class=[Detached Shading:Building]
   **   ~~~   ** Figure being Overlapped=SHADINGB3923W9785, Surface Class=[Detached Shading:Building]
   **   ~~~   ** Figure being Overlapped=SHADINGB3429W10948, Surface Class=[Detached Shading:Building]
   *************
   ** Warning ** Too many figures [>=500000] in a shadow overlap
   **   ~~~   ** Overlapping figure=Mir-SHADINGB2808W7510, Surface Class=[Detached Shading:Building]
   **   ~~~   **   This error occurred 2 times.
   **   ~~~   ** Figure being Overlapped=SHADINGB838W5930, Surface Class=[Detached Shading:Building]
   **   ~~~   ** Figure being Overlapped=Mir-SHADINGB3923W9340, Surface Class=[Detached Shading:Building]
   *************
   ** Warning ** Too many figures [>=500000] in a shadow overlap
   **   ~~~   ** Overlapping figure=SHADINGB2808W7509, Surface Class=[Detached Shading:Building]
   **   ~~~   **   This error occurred 2 times.
   **   ~~~   ** Figure being Overlapped=SHADINGB838W5926, Surface Class=[Detached Shading:Building]
   **   ~~~   ** Figure being Overlapped=Mir-SHADINGB3923W9843, Surface Class=[Detached Shading:Building]
   *************
   ** Warning ** Too many figures [>=500000] in a shadow overlap
   **   ~~~   ** Overlapping figure=Mir-SHADINGB2808W7857, Surface Class=[Detached Shading:Building]
   **   ~~~   **   This error occurred 10 times.
   **   ~~~   ** Figure being Overlapped=SHADINGB3923W9666, Surface Class=[Detached Shading:Building]
   **   ~~~   ** Figure being Overlapped=Mir-SHADINGB3923W9725, Surface Class=[Detached Shading:Building]
   **   ~~~   ** Figure being Overlapped=Mir-SHADINGB838W5878, Surface Class=[Detached Shading:Building]
   **   ~~~   ** Figure being Overlapped=Mir-SHADINGB3923W9861, Surface Class=[Detached Shading:Building]
   **   ~~~   ** Figure being Overlapped=SHADINGB4226W4623, Surface Class=[Detached Shading:Building]
   **   ~~~   ** Figure being Overlapped=SHADINGB3923W9475, Surface Class=[Detached Shading:Building]
   **   ~~~   ** Figure being Overlapped=Mir-SHADINGB3923W9739, Surface Class=[Detached Shading:Building]
   **   ~~~   ** Figure being Overlapped=Mir-SHADINGB3923W9728, Surface Class=[Detached Shading:Building]
   *************
   ** Warning ** Too many figures [>=500000] in a shadow overlap
   **   ~~~   ** Overlapping figure=Mir-SHADINGB2808W7703, Surface Class=[Detached Shading:Building]
   **   ~~~   **   This error occurred 3 times.
   **   ~~~   ** Figure being Overlapped=Mir-SHADINGB3923W9986, Surface Class=[Detached Shading:Building]
   **   ~~~   ** Figure being Overlapped=Mir-SHADINGB3923W9321, Surface Class=[Detached Shading:Building]
   **   ~~~   ** Figure being Overlapped=Mir-SHADINGB3923W9548, Surface Class=[Detached Shading:Building]
   *************
   ** Warning ** Too many figures [>=500000] in a shadow overlap
   **   ~~~   ** Overlapping figure=SHADINGB2808W7706, Surface Class=[Detached Shading:Building]
   **   ~~~   **   This error occurred 3 times.
   **   ~~~   ** Figure being Overlapped=Mir-SHADINGB3923W9985, Surface Class=[Detached Shading:Building]
   **   ~~~   ** Figure being Overlapped=Mir-SHADINGB3923W9323, Surface Class=[Detached Shading:Building]
   **   ~~~   ** Figure being Overlapped=WALL11434, Surface Class=[Wall]
   *************
   ** Warning ** Too many figures [>=500000] in a shadow overlap
   **   ~~~   ** Overlapping figure=Mir-SHADINGB2808W7647, Surface Class=[Detached Shading:Building]
   **   ~~~   **   This error occurred 1 times.
   **   ~~~   ** Figure being Overlapped=Mir-SHADINGB3923W9369, Surface Class=[Detached Shading:Building]
   *************
   ** Warning ** Too many figures [>=500000] in a shadow overlap
   **   ~~~   ** Overlapping figure=SHADINGB2808W7571, Surface Class=[Detached Shading:Building]
   **   ~~~   **   This error occurred 1 times.
   **   ~~~   ** Figure being Overlapped=Mir-SHADINGB3923W9356, Surface Class=[Detached Shading:Building]
   *************
   ** Warning ** Too many figures [>=500000] in a shadow overlap
   **   ~~~   ** Overlapping figure=Mir-SHADINGB2808W7917, Surface Class=[Detached Shading:Building]
   **   ~~~   **   This error occurred 5 times.
   **   ~~~   ** Figure being Overlapped=SHADINGB3923W9644, Surface Class=[Detached Shading:Building]
   **   ~~~   ** Figure being Overlapped=Mir-SHADINGB3923W9519, Surface Class=[Detached Shading:Building]
   **   ~~~   ** Figure being Overlapped=Mir-SHADINGB3923W9548, Surface Class=[Detached Shading:Building]
   **   ~~~   ** Figure being Overlapped=SHADINGB3923W9832, Surface Class=[Detached Shading:Building]
   *************
   ** Warning ** Too many figures [>=500000] in a shadow overlap
   **   ~~~   ** Overlapping figure=SHADINGB2808W7918, Surface Class=[Detached Shading:Building]
   **   ~~~   **   This error occurred 3 times.
   **   ~~~   ** Figure being Overlapped=SHADINGB3923W9643, Surface Class=[Detached Shading:Building]
   **   ~~~   ** Figure being Overlapped=SHADINGB3923W9559, Surface Class=[Detached Shading:Building]
   **   ~~~   ** Figure being Overlapped=SHADINGB3923W9831, Surface Class=[Detached Shading:Building]
   *************
   ** Warning ** Too many figures [>=500000] in a shadow overlap
   **   ~~~   ** Overlapping figure=SHADINGB2808W7973, Surface Class=[Detached Shading:Building]
   **   ~~~   **   This error occurred 4 times.
   **   ~~~   ** Figure being Overlapped=Mir-SHADINGB3923W9546, Surface Class=[Detached Shading:Building]
   **   ~~~   ** Figure being Overlapped=Mir-SHADINGB3923W9547, Surface Class=[Detached Shading:Building]
   **   ~~~   ** Figure being Overlapped=Mir-SHADINGB3923W9367, Surface Class=[Detached Shading:Building]
   **   ~~~   ** Figure being Overlapped=SHADINGB4226W4496, Surface Class=[Detached Shading:Building]
   *************
   ** Warning ** Too many figures [>=500000] in a shadow overlap
   **   ~~~   ** Overlapping figure=Mir-SHADINGB2808W7973, Surface Class=[Detached Shading:Building]
   **   ~~~   **   This error occurred 5 times.
   **   ~~~   ** Figure being Overlapped=Mir-SHADINGB3923W9545, Surface Class=[Detached Shading:Building]
   **   ~~~   ** Figure being Overlapped=Mir-SHADINGB3923W9548, Surface Class=[Detached Shading:Building]
   **   ~~~   ** Figure being Overlapped=Mir-SHADINGB3923W9370, Surface Class=[Detached Shading:Building]
   **   ~~~   ** Figure being Overlapped=SHADINGB4226W4491, Surface Class=[Detached Shading:Building]
   *************
   ** Warning ** Too many figures [>=500000] in a shadow overlap
   **   ~~~   ** Overlapping figure=SHADINGB500W4038, Surface Class=[Detached Shading:Building]
   **   ~~~   **   This error occurred 2 times.
   **   ~~~   ** Figure being Overlapped=Mir-SHADINGB3923W9381, Surface Class=[Detached Shading:Building]
   **   ~~~   ** Figure being Overlapped=Mir-SHADINGB4247W4463, Surface Class=[Detached Shading:Building]
   *************
   ** Warning ** Too many figures [>=500000] in a shadow overlap
   **   ~~~   ** Overlapping figure=Mir-SHADINGB500W4038, Surface Class=[Detached Shading:Building]
   **   ~~~   **   This error occurred 3 times.
   **   ~~~   ** Figure being Overlapped=Mir-SHADINGB3923W9382, Surface Class=[Detached Shading:Building]
   **   ~~~   ** Figure being Overlapped=Mir-SHADINGB4247W4455, Surface Class=[Detached Shading:Building]
   **   ~~~   ** Figure being Overlapped=Mir-SHADINGB3923W9218, Surface Class=[Detached Shading:Building]
   *************
   ** Warning ** Too many figures [>=500000] in a shadow overlap
   **   ~~~   ** Overlapping figure=SHADINGB500W4048, Surface Class=[Detached Shading:Building]
   **   ~~~   **   This error occurred 3 times.
   **   ~~~   ** Figure being Overlapped=SHADINGB3923W9402, Surface Class=[Detached Shading:Building]
   **   ~~~   ** Figure being Overlapped=Mir-SHADINGB3429W10944, Surface Class=[Detached Shading:Building]
   **   ~~~   ** Figure being Overlapped=Mir-SHADINGB3923W9217, Surface Class=[Detached Shading:Building]
   *************
   ** Warning ** Too many figures [>=500000] in a shadow overlap
   **   ~~~   ** Overlapping figure=SHADINGB500W4049, Surface Class=[Detached Shading:Building]
   **   ~~~   **   This error occurred 3 times.
   **   ~~~   ** Figure being Overlapped=SHADINGB3923W9401, Surface Class=[Detached Shading:Building]
   **   ~~~   ** Figure being Overlapped=Mir-SHADINGB3923W9215, Surface Class=[Detached Shading:Building]
   **   ~~~   ** Figure being Overlapped=Mir-SHADINGB3923W9728, Surface Class=[Detached Shading:Building]
   *************
   ** Warning ** Too many figures [>=500000] in a shadow overlap
   **   ~~~   ** Overlapping figure=SHADINGB2808W7496, Surface Class=[Detached Shading:Building]
   **   ~~~   **   This error occurred 2 times.
   **   ~~~   ** Figure being Overlapped=Mir-SHADINGB3923W9518, Surface Class=[Detached Shading:Building]
   **   ~~~   ** Figure being Overlapped=SHADINGB3923W9487, Surface Class=[Detached Shading:Building]
   *************
   ** Warning ** Too many figures [>=500000] in a shadow overlap
   **   ~~~   ** Overlapping figure=Mir-SHADINGB2808W7496, Surface Class=[Detached Shading:Building]
   **   ~~~   **   This error occurred 5 times.
   **   ~~~   ** Figure being Overlapped=Mir-SHADINGB3923W9521, Surface Class=[Detached Shading:Building]
   **   ~~~   ** Figure being Overlapped=Mir-SHADINGB4226W4496, Surface Class=[Detached Shading:Building]
   *************
   ** Warning ** Too many figures [>=500000] in a shadow overlap
   **   ~~~   ** Overlapping figure=SHADINGB2808W7794, Surface Class=[Detached Shading:Building]
   **   ~~~   **   This error occurred 2 times.
   **   ~~~   ** Figure being Overlapped=SHADINGB3923W9788, Surface Class=[Detached Shading:Building]
   **   ~~~   ** Figure being Overlapped=Mir-SHADINGB398W2855, Surface Class=[Detached Shading:Building]
   *************
   ** Warning ** Too many figures [>=500000] in a shadow overlap
   **   ~~~   ** Overlapping figure=Mir-SHADINGB2808W7794, Surface Class=[Detached Shading:Building]
   **   ~~~   **   This error occurred 3 times.
   **   ~~~   ** Figure being Overlapped=SHADINGB3923W9787, Surface Class=[Detached Shading:Building]
   **   ~~~   ** Figure being Overlapped=Mir-SHADINGB3923W9201, Surface Class=[Detached Shading:Building]
   **   ~~~   ** Figure being Overlapped=Mir-SHADINGB398W2857, Surface Class=[Detached Shading:Building]
   *************
   ** Warning ** Too many figures [>=500000] in a shadow overlap
   **   ~~~   ** Overlapping figure=SHADINGB2808W7688, Surface Class=[Detached Shading:Building]
   **   ~~~   **   This error occurred 1 times.
   **   ~~~   ** Figure being Overlapped=Mir-SHADINGB3923W9322, Surface Class=[Detached Shading:Building]
   *************
   ** Warning ** Too many figures [>=500000] in a shadow overlap
   **   ~~~   ** Overlapping figure=Mir-SHADINGB2808W7688, Surface Class=[Detached Shading:Building]
   **   ~~~   **   This error occurred 2 times.
   **   ~~~   ** Figure being Overlapped=Mir-SHADINGB3923W9321, Surface Class=[Detached Shading:Building]
   **   ~~~   ** Figure being Overlapped=SHADINGB3923W9246, Surface Class=[Detached Shading:Building]
   *************
   ** Warning ** Too many figures [>=500000] in a shadow overlap
   **   ~~~   ** Overlapping figure=SHADINGB2808W7807, Surface Class=[Detached Shading:Building]
   **   ~~~   **   This error occurred 2 times.
   **   ~~~   ** Figure being Overlapped=SHADINGB3923W9788, Surface Class=[Detached Shading:Building]
   **   ~~~   ** Figure being Overlapped=SHADINGB398W2857, Surface Class=[Detached Shading:Building]
   *************
   ** Warning ** Too many figures [>=500000] in a shadow overlap
   **   ~~~   ** Overlapping figure=Mir-SHADINGB2808W7807, Surface Class=[Detached Shading:Building]
   **   ~~~   **   This error occurred 1 times.
   **   ~~~   ** Figure being Overlapped=SHADINGB3923W9787, Surface Class=[Detached Shading:Building]
   *************
   ** Warning ** Too many figures [>=500000] in a shadow overlap
   **   ~~~   ** Overlapping figure=Mir-SHADINGB2808W7738, Surface Class=[Detached Shading:Building]
   **   ~~~   **   This error occurred 1 times.
   **   ~~~   ** Figure being Overlapped=SHADINGB3923W9259, Surface Class=[Detached Shading:Building]
   *************
   ** Warning ** Too many figures [>=500000] in a shadow overlap
   **   ~~~   ** Overlapping figure=SHADINGB2808W7737, Surface Class=[Detached Shading:Building]
   **   ~~~   **   This error occurred 2 times.
   **   ~~~   ** Figure being Overlapped=SHADINGB3923W9260, Surface Class=[Detached Shading:Building]
   **   ~~~   ** Figure being Overlapped=SHADINGB398W3195, Surface Class=[Detached Shading:Building]
   *************
   ** Warning ** Too many figures [>=500000] in a shadow overlap
   **   ~~~   ** Overlapping figure=SHADINGB2206W6788, Surface Class=[Detached Shading:Building]
   **   ~~~   **   This error occurred 2 times.
   **   ~~~   ** Figure being Overlapped=Mir-SHADINGB3923W9322, Surface Class=[Detached Shading:Building]
   **   ~~~   ** Figure being Overlapped=WALL11425, Surface Class=[Wall]
   *************
   ** Warning ** Too many figures [>=500000] in a shadow overlap
   **   ~~~   ** Overlapping figure=Mir-SHADINGB2206W6788, Surface Class=[Detached Shading:Building]
   **   ~~~   **   This error occurred 2 times.
   **   ~~~   ** Figure being Overlapped=Mir-SHADINGB3923W9321, Surface Class=[Detached Shading:Building]
   **   ~~~   ** Figure being Overlapped=WALL11423V1, Surface Class=[Wall]
   *************
   ** Warning ** Too many figures [>=500000] in a shadow overlap
   **   ~~~   ** Overlapping figure=SHADINGB2206W7028, Surface Class=[Detached Shading:Building]
   **   ~~~   **   This error occurred 2 times.
   **   ~~~   ** Figure being Overlapped=SHADINGB3923W3660, Surface Class=[Detached Shading:Building]
   **   ~~~   ** Figure being Overlapped=Mir-SHADINGB3923W9213, Surface Class=[Detached Shading:Building]
   *************
   ** Warning ** Too many figures [>=500000] in a shadow overlap
   **   ~~~   ** Overlapping figure=Mir-SHADINGB2206W7028, Surface Class=[Detached Shading:Building]
   **   ~~~   **   This error occurred 2 times.
   **   ~~~   ** Figure being Overlapped=SHADINGB3923W3656, Surface Class=[Detached Shading:Building]
[...]
   **   ~~~   ** Figure being Overlapped=SHADINGB3923W9215, Surface Class=[Detached Shading:Building]
   *************
   ** Warning ** Too many figures [>=500000] in a shadow overlap
   **   ~~~   ** Overlapping figure=Mir-SHADINGB123W2794, Surface Class=[Detached Shading:Building]
   **   ~~~   **   This error occurred 1 times.
   **   ~~~   ** Figure being Overlapped=Mir-SHADINGB3923W9987, Surface Class=[Detached Shading:Building]
   *************
   ** Warning ** Too many figures [>=500000] in a shadow overlap
   **   ~~~   ** Overlapping figure=Mir-SHADINGB123W2381, Surface Class=[Detached Shading:Building]
   **   ~~~   **   This error occurred 1 times.
   **   ~~~   ** Figure being Overlapped=SHADINGB3923W9336, Surface Class=[Detached Shading:Building]
   *************
   ** Warning ** Too many figures [>=500000] in a shadow overlap
   **   ~~~   ** Overlapping figure=SHADINGB904W4702, Surface Class=[Detached Shading:Building]
   **   ~~~   **   This error occurred 2 times.
   **   ~~~   ** Figure being Overlapped=SHADINGB3923W9337, Surface Class=[Detached Shading:Building]
   **   ~~~   ** Figure being Overlapped=Mir-SHADINGB3923W9486, Surface Class=[Detached Shading:Building]
   *************
   ** Warning ** Too many figures [>=500000] in a shadow overlap
   **   ~~~   ** Overlapping figure=SHADINGB4134W11719, Surface Class=[Detached Shading:Building]
   **   ~~~   **   This error occurred 1 times.
   **   ~~~   ** Figure being Overlapped=SHADINGB3923W9340, Surface Class=[Detached Shading:Building]
   *************
   ** Warning ** Too many figures [>=500000] in a shadow overlap
   **   ~~~   ** Overlapping figure=Mir-SHADINGB1173W6642, Surface Class=[Detached Shading:Building]
   **   ~~~   **   This error occurred 1 times.
   **   ~~~   ** Figure being Overlapped=SHADINGB2808W7692, Surface Class=[Detached Shading:Building]
   *************
   ** Warning ** Too many figures [>=500000] in a shadow overlap
   **   ~~~   ** Overlapping figure=SHADINGB123W2667, Surface Class=[Detached Shading:Building]
   **   ~~~   **   This error occurred 1 times.
   **   ~~~   ** Figure being Overlapped=Mir-SHADINGB3252W10330, Surface Class=[Detached Shading:Building]
   *************
   ** Warning ** Too many figures [>=500000] in a shadow overlap
   **   ~~~   ** Overlapping figure=SHADINGB4134W11731, Surface Class=[Detached Shading:Building]
   **   ~~~   **   This error occurred 1 times.
   **   ~~~   ** Figure being Overlapped=SHADINGB3252W10270, Surface Class=[Detached Shading:Building]
   *************
   ** Warning ** Too many figures [>=500000] in a shadow overlap
   **   ~~~   ** Overlapping figure=Mir-SHADINGB4134W11731, Surface Class=[Detached Shading:Building]
   **   ~~~   **   This error occurred 1 times.
   **   ~~~   ** Figure being Overlapped=SHADINGB3252W10269, Surface Class=[Detached Shading:Building]
   *************
   ** Warning ** Too many figures [>=500000] in a shadow overlap
   **   ~~~   ** Overlapping figure=Mir-SHADINGB4134W11834, Surface Class=[Detached Shading:Building]
   **   ~~~   **   This error occurred 1 times.
   **   ~~~   ** Figure being Overlapped=SHADINGB3252W10393, Surface Class=[Detached Shading:Building]
   *************
   ** Warning ** Too many figures [>=500000] in a shadow overlap
   **   ~~~   ** Overlapping figure=SHADINGB545W5145, Surface Class=[Detached Shading:Building]
   **   ~~~   **   This error occurred 1 times.
   **   ~~~   ** Figure being Overlapped=Mir-SHADINGB3252W10225, Surface Class=[Detached Shading:Building]
   *************
   ** Warning ** Too many figures [>=500000] in a shadow overlap
   **   ~~~   ** Overlapping figure=Mir-SHADINGB1173W6131, Surface Class=[Detached Shading:Building]
   **   ~~~   **   This error occurred 1 times.
   **   ~~~   ** Figure being Overlapped=Mir-SHADINGB3252W10227, Surface Class=[Detached Shading:Building]
   *************
   ** Warning ** Too many figures [>=500000] in a shadow overlap
   **   ~~~   ** Overlapping figure=SHADINGB1173W6132, Surface Class=[Detached Shading:Building]
   **   ~~~   **   This error occurred 1 times.
   **   ~~~   ** Figure being Overlapped=SHADINGB3252W10207, Surface Class=[Detached Shading:Building]
   *************
   ** Warning ** Too many figures [>=500000] in a shadow overlap
   **   ~~~   ** Overlapping figure=Mir-SHADINGB1173W6023, Surface Class=[Detached Shading:Building]
   **   ~~~   **   This error occurred 1 times.
   **   ~~~   ** Figure being Overlapped=Mir-SHADINGB3252W10163, Surface Class=[Detached Shading:Building]
   *************
   ** Warning ** Too many figures [>=500000] in a shadow overlap
   **   ~~~   ** Overlapping figure=SHADINGB1173W6026, Surface Class=[Detached Shading:Building]
   **   ~~~   **   This error occurred 1 times.
   **   ~~~   ** Figure being Overlapped=Mir-SHADINGB3252W10139, Surface Class=[Detached Shading:Building]
   *************
   ** Warning ** Too many figures [>=500000] in a shadow overlap
   **   ~~~   ** Overlapping figure=SHADINGB1173W6025, Surface Class=[Detached Shading:Building]
   **   ~~~   **   This error occurred 1 times.
   **   ~~~   ** Figure being Overlapped=Mir-SHADINGB2808W7791, Surface Class=[Detached Shading:Building]
   *************
   ** Warning ** Too many figures [>=500000] in a shadow overlap
   **   ~~~   ** Overlapping figure=Mir-SHADINGB1173W6025, Surface Class=[Detached Shading:Building]
   **   ~~~   **   This error occurred 1 times.
   **   ~~~   ** Figure being Overlapped=Mir-SHADINGB2808W7797, Surface Class=[Detached Shading:Building]
   *************
   ** Warning ** Too many figures [>=500000] in a shadow overlap
   **   ~~~   ** Overlapping figure=Mir-SHADINGB4134W11776, Surface Class=[Detached Shading:Building]
   **   ~~~   **   This error occurred 1 times.
   **   ~~~   ** Figure being Overlapped=Mir-SHADINGB2808W7797, Surface Class=[Detached Shading:Building]
   *************
   ** Warning ** Too many figures [>=500000] in a shadow overlap
   **   ~~~   ** Overlapping figure=SHADINGB4134W11529, Surface Class=[Detached Shading:Building]
   **   ~~~   **   This error occurred 1 times.
   **   ~~~   ** Figure being Overlapped=SHADINGB2808W7581, Surface Class=[Detached Shading:Building]
   *************
   ** Warning ** Too many figures [>=500000] in a shadow overlap
   **   ~~~   ** Overlapping figure=Mir-SHADINGB1173W6137, Surface Class=[Detached Shading:Building]
   **   ~~~   **   This error occurred 1 times.
   **   ~~~   ** Figure being Overlapped=SHADINGB2808W7571, Surface Class=[Detached Shading:Building]
   *************
   ** Warning ** Too many figures [>=500000] in a shadow overlap
   **   ~~~   ** Overlapping figure=SHADINGB1173W6612, Surface Class=[Detached Shading:Building]
   **   ~~~   **   This error occurred 1 times.
   **   ~~~   ** Figure being Overlapped=SHADINGB2808W7568, Surface Class=[Detached Shading:Building]
   *************
   ** Warning ** Too many figures [>=500000] in a shadow overlap
   **   ~~~   ** Overlapping figure=SHADINGB4134W4019, Surface Class=[Detached Shading:Building]
   **   ~~~   **   This error occurred 1 times.
   **   ~~~   ** Figure being Overlapped=Mir-SHADINGB3923W9489, Surface Class=[Detached Shading:Building]
   *************
   ** Warning ** Too many figures [>=500000] in a shadow overlap
   **   ~~~   ** Overlapping figure=Mir-SHADINGB4134W4019, Surface Class=[Detached Shading:Building]
   **   ~~~   **   This error occurred 1 times.
   **   ~~~   ** Figure being Overlapped=Mir-SHADINGB3923W9490, Surface Class=[Detached Shading:Building]
   *************
   ** Warning ** Too many figures [>=500000] in a shadow overlap
   **   ~~~   ** Overlapping figure=Mir-SHADINGB4134W11808, Surface Class=[Detached Shading:Building]
   **   ~~~   **   This error occurred 1 times.
   **   ~~~   ** Figure being Overlapped=SHADINGB3923W9474, Surface Class=[Detached Shading:Building]
   *************
   ** Warning ** Too many figures [>=500000] in a shadow overlap
   **   ~~~   ** Overlapping figure=SHADINGB4134W11807, Surface Class=[Detached Shading:Building]
   **   ~~~   **   This error occurred 1 times.
   **   ~~~   ** Figure being Overlapped=SHADINGB3923W9476, Surface Class=[Detached Shading:Building]
   *************
   ** Warning ** Too many figures [>=500000] in a shadow overlap
   **   ~~~   ** Overlapping figure=SHADINGB904W4720, Surface Class=[Detached Shading:Building]
   **   ~~~   **   This error occurred 1 times.
   **   ~~~   ** Figure being Overlapped=Mir-SHADINGB3923W9434, Surface Class=[Detached Shading:Building]
   *************
   ** Warning ** Too many figures [>=500000] in a shadow overlap
   **   ~~~   ** Overlapping figure=Mir-SHADINGB2808W7615, Surface Class=[Detached Shading:Building]
   **   ~~~   **   This error occurred 1 times.
   **   ~~~   ** Figure being Overlapped=Mir-SHADINGB3923W9437, Surface Class=[Detached Shading:Building]
   *************
   ** Warning ** Too many figures [>=500000] in a shadow overlap
   **   ~~~   ** Overlapping figure=SHADINGB2808W7617, Surface Class=[Detached Shading:Building]
   **   ~~~   **   This error occurred 1 times.
   **   ~~~   ** Figure being Overlapped=Mir-SHADINGB3923W9435, Surface Class=[Detached Shading:Building]
   *************
   ** Warning ** Too many figures [>=500000] in a shadow overlap
   **   ~~~   ** Overlapping figure=Mir-SHADINGB545W5208, Surface Class=[Detached Shading:Building]
   **   ~~~   **   This error occurred 1 times.
   **   ~~~   ** Figure being Overlapped=SHADINGB3923W9215, Surface Class=[Detached Shading:Building]
   *************
   ** Warning ** Too many figures [>=500000] in a shadow overlap
   **   ~~~   ** Overlapping figure=Mir-SHADINGB2235W8111, Surface Class=[Detached Shading:Building]
   **   ~~~   **   This error occurred 1 times.
   **   ~~~   ** Figure being Overlapped=SHADINGB3923W9209, Surface Class=[Detached Shading:Building]
   *************
   ** Warning ** Too many figures [>=500000] in a shadow overlap
   **   ~~~   ** Overlapping figure=SHADINGB2235W8114, Surface Class=[Detached Shading:Building]
   **   ~~~   **   This error occurred 1 times.
   **   ~~~   ** Figure being Overlapped=SHADINGB3923W9204, Surface Class=[Detached Shading:Building]
   *************
   ** Warning ** Too many figures [>=500000] in a shadow overlap
   **   ~~~   ** Overlapping figure=Mir-SHADINGB4134W11844, Surface Class=[Detached Shading:Building]
   **   ~~~   **   This error occurred 1 times.
   **   ~~~   ** Figure being Overlapped=SHADINGB3923W9295, Surface Class=[Detached Shading:Building]
   *************
   ** Warning ** Too many figures [>=500000] in a shadow overlap
   **   ~~~   ** Overlapping figure=Mir-SHADINGB1173W6029, Surface Class=[Detached Shading:Building]
   **   ~~~   **   This error occurred 1 times.
   **   ~~~   ** Figure being Overlapped=SHADINGB3923W9476, Surface Class=[Detached Shading:Building]
   *************
   ** Warning ** Too many figures [>=500000] in a shadow overlap
   **   ~~~   ** Overlapping figure=SHADINGB1173W6571, Surface Class=[Detached Shading:Building]
   **   ~~~   **   This error occurred 1 times.
   **   ~~~   ** Figure being Overlapped=SHADINGB3923W9504, Surface Class=[Detached Shading:Building]
   *************
   ** Warning ** Too many figures [>=500000] in a shadow overlap
   **   ~~~   ** Overlapping figure=SHADINGB1173W6568, Surface Class=[Detached Shading:Building]
   **   ~~~   **   This error occurred 1 times.
   **   ~~~   ** Figure being Overlapped=Mir-SHADINGB2808W7791, Surface Class=[Detached Shading:Building]
   *************
   ** Warning ** Too many figures [>=500000] in a shadow overlap
   **   ~~~   ** Overlapping figure=Mir-SHADINGB1173W6568, Surface Class=[Detached Shading:Building]
   **   ~~~   **   This error occurred 1 times.
   **   ~~~   ** Figure being Overlapped=Mir-SHADINGB2808W7797, Surface Class=[Detached Shading:Building]
   *************
   ** Warning ** Too many figures [>=500000] in a shadow overlap
   **   ~~~   ** Overlapping figure=Mir-SHADINGB123W2626, Surface Class=[Detached Shading:Building]
   **   ~~~   **   This error occurred 1 times.
   **   ~~~   ** Figure being Overlapped=Mir-SHADINGB3923W9436, Surface Class=[Detached Shading:Building]
   *************
   ** Warning ** Too many figures [>=500000] in a shadow overlap
   **   ~~~   ** Overlapping figure=Mir-SHADINGB2808W7449, Surface Class=[Detached Shading:Building]
   **   ~~~   **   This error occurred 1 times.
   **   ~~~   ** Figure being Overlapped=Mir-SHADINGB3923W9435, Surface Class=[Detached Shading:Building]
   *************
   ** Warning ** Too many figures [>=500000] in a shadow overlap
   **   ~~~   ** Overlapping figure=SHADINGB4134W11761, Surface Class=[Detached Shading:Building]
   **   ~~~   **   This error occurred 1 times.
   **   ~~~   ** Figure being Overlapped=Mir-SHADINGB3923W9738, Surface Class=[Detached Shading:Building]
   *************
   ** Warning ** Too many figures [>=500000] in a shadow overlap
   **   ~~~   ** Overlapping figure=Mir-SHADINGB4134W11761, Surface Class=[Detached Shading:Building]
   **   ~~~   **   This error occurred 1 times.
   **   ~~~   ** Figure being Overlapped=Mir-SHADINGB3923W9745, Surface Class=[Detached Shading:Building]
   *************
   ** Warning ** Too many figures [>=500000] in a shadow overlap
   **   ~~~   ** Overlapping figure=Mir-SHADINGB4134W11624, Surface Class=[Detached Shading:Building]
   **   ~~~   **   This error occurred 1 times.
   **   ~~~   ** Figure being Overlapped=Mir-SHADINGB2808W7795, Surface Class=[Detached Shading:Building]
   *************
   ** Warning ** Too many figures [>=500000] in a shadow overlap
   **   ~~~   ** Overlapping figure=SHADINGB4134W11623, Surface Class=[Detached Shading:Building]
   **   ~~~   **   This error occurred 1 times.
   **   ~~~   ** Figure being Overlapped=SHADINGB2808W7692, Surface Class=[Detached Shading:Building]
   *************
   ** Warning ** Too many figures [>=500000] in a shadow overlap
   **   ~~~   ** Overlapping figure=SHADINGB1173W6087, Surface Class=[Detached Shading:Building]
   **   ~~~   **   This error occurred 1 times.
   **   ~~~   ** Figure being Overlapped=Mir-SHADINGB3923W9369, Surface Class=[Detached Shading:Building]
   *************
   ** Warning ** Too many figures [>=500000] in a shadow overlap
   **   ~~~   ** Overlapping figure=Mir-SHADINGB1173W6087, Surface Class=[Detached Shading:Building]
   **   ~~~   **   This error occurred 1 times.
   **   ~~~   ** Figure being Overlapped=Mir-SHADINGB3923W9355, Surface Class=[Detached Shading:Building]
   *************
   ** Warning ** Too many figures [>=500000] in a shadow overlap
   **   ~~~   ** Overlapping figure=Mir-SHADINGB4134W11822, Surface Class=[Detached Shading:Building]
   **   ~~~   **   This error occurred 1 times.
   **   ~~~   ** Figure being Overlapped=Mir-SHADINGB3923W9434, Surface Class=[Detached Shading:Building]
   *************
   ** Warning ** Too many figures [>=500000] in a shadow overlap
   **   ~~~   ** Overlapping figure=Mir-SHADINGB3157W10028, Surface Class=[Detached Shading:Building]
   **   ~~~   **   This error occurred 1 times.
   **   ~~~   ** Figure being Overlapped=Mir-SHADINGB3923W9437, Surface Class=[Detached Shading:Building]
   *************
   ** Warning ** Too many figures [>=500000] in a shadow overlap
   **   ~~~   ** Overlapping figure=SHADINGB1173W6526, Surface Class=[Detached Shading:Building]
   **   ~~~   **   This error occurred 1 times.
   **   ~~~   ** Figure being Overlapped=Mir-SHADINGB2808W7796, Surface Class=[Detached Shading:Building]
   *************
   ** Warning ** Too many figures [>=500000] in a shadow overlap
   **   ~~~   ** Overlapping figure=Mir-SHADINGB1173W6526, Surface Class=[Detached Shading:Building]
   **   ~~~   **   This error occurred 1 times.
   **   ~~~   ** Figure being Overlapped=SHADINGB2808W7692, Surface Class=[Detached Shading:Building]
   *************
   ** Warning ** Too many figures [>=500000] in a shadow overlap
   **   ~~~   ** Overlapping figure=Mir-SHADINGB4134W11855, Surface Class=[Detached Shading:Building]
   **   ~~~   **   This error occurred 1 times.
   **   ~~~   ** Figure being Overlapped=Mir-SHADINGB2808W7791, Surface Class=[Detached Shading:Building]
   *************
   ** Warning ** Too many figures [>=500000] in a shadow overlap
   **   ~~~   ** Overlapping figure=SHADINGB4134W11488, Surface Class=[Detached Shading:Building]
   **   ~~~   **   This error occurred 1 times.
   **   ~~~   ** Figure being Overlapped=Mir-SHADINGB3923W9744, Surface Class=[Detached Shading:Building]
   *************
   ** Warning ** Too many figures [>=500000] in a shadow overlap
   **   ~~~   ** Overlapping figure=Mir-SHADINGB4134W11488, Surface Class=[Detached Shading:Building]
   **   ~~~   **   This error occurred 1 times.
   **   ~~~   ** Figure being Overlapped=Mir-SHADINGB3923W9741, Surface Class=[Detached Shading:Building]
   *************
   ** Warning ** Too many figures [>=500000] in a shadow overlap
   **   ~~~   ** Overlapping figure=Mir-SHADINGB3091W8881, Surface Class=[Detached Shading:Building]
   **   ~~~   **   This error occurred 1 times.
   **   ~~~   ** Figure being Overlapped=Mir-SHADINGB3923W9743, Surface Class=[Detached Shading:Building]
   *************
   ** Warning ** Too many figures [>=500000] in a shadow overlap
   **   ~~~   ** Overlapping figure=Mir-SHADINGB4134W11832, Surface Class=[Detached Shading:Building]
   **   ~~~   **   This error occurred 1 times.
   **   ~~~   ** Figure being Overlapped=SHADINGB3923W9452, Surface Class=[Detached Shading:Building]
   *************
   ** Warning ** Too many figures [>=500000] in a shadow overlap
   **   ~~~   ** Overlapping figure=SHADINGB904W4768, Surface Class=[Detached Shading:Building]
   **   ~~~   **   This error occurred 1 times.
   **   ~~~   ** Figure being Overlapped=Mir-SHADINGB2808W7792, Surface Class=[Detached Shading:Building]
   *************
   ** Warning ** Too many figures [>=500000] in a shadow overlap
   **   ~~~   ** Overlapping figure=SHADINGB1173W6631, Surface Class=[Detached Shading:Building]
   **   ~~~   **   This error occurred 1 times.
   **   ~~~   ** Figure being Overlapped=Mir-SHADINGB2808W7796, Surface Class=[Detached Shading:Building]
   *************
   ** Warning ** Too many figures [>=500000] in a shadow overlap
   **   ~~~   ** Overlapping figure=Mir-SHADINGB1173W6631, Surface Class=[Detached Shading:Building]
   **   ~~~   **   This error occurred 1 times.
   **   ~~~   ** Figure being Overlapped=SHADINGB2808W7692, Surface Class=[Detached Shading:Building]
   *************
   ** Warning ** Too many figures [>=500000] in a shadow overlap
   **   ~~~   ** Overlapping figure=Mir-SHADINGB2235W8117, Surface Class=[Detached Shading:Building]
   **   ~~~   **   This error occurred 1 times.
   **   ~~~   ** Figure being Overlapped=Mir-SHADINGB3923W9436, Surface Class=[Detached Shading:Building]
   *************
   ** Warning ** Too many figures [>=500000] in a shadow overlap
   **   ~~~   ** Overlapping figure=Mir-SHADINGB797W5489, Surface Class=[Detached Shading:Building]
   **   ~~~   **   This error occurred 1 times.
   **   ~~~   ** Figure being Overlapped=SHADINGB398W257, Surface Class=[Detached Shading:Building]
   *************
   ** Warning ** Too many figures [>=500000] in a shadow overlap
   **   ~~~   ** Overlapping figure=SHADINGB123W2216, Surface Class=[Detached Shading:Building]
   **   ~~~   **   This error occurred 1 times.
   **   ~~~   ** Figure being Overlapped=Mir-SHADINGB398W3282, Surface Class=[Detached Shading:Building]
   *************
   **   ~~~   **   The too many figures errors occurred 4247 times (total).
   *************
   ************* EnergyPlus Warmup Error Summary. During Warmup: 0 Warning; 0 Severe Errors.
   ************* EnergyPlus Sizing Error Summary. During Sizing: 1 Warning; 0 Severe Errors.
   ************* EnergyPlus Completed Successfully-- 4261 Warning; 0 Severe Errors; Elapsed Time=03hr 06min 32.00sec
