Program Version,EnergyPlus, Version 8.4.0-ad2a710397, YMD=2016.01.22 16:43,IDD_Version 8.2.0
   ** Warning ** Version: in IDF="8.2" not the same as expected="8.4"
   ** Warning ** Timestep: Requested number (1) is less than the suggested minimum of 4.
   **   ~~~   ** Please see entry for Timestep in Input/Output Reference for discussion of considerations.
   ** Warning ** Requested Object not found in Definitions: Site:GroundDomain:Slab
   ** Warning ** Requested Object not found in Definitions: Site:GroundDomain:Basement
   ** Warning ** Requested Object not found in Definitions: FaultModel:ThermostatOffset
   ** Warning ** Requested Object not found in Definitions: FaultModel:HumidistatOffset
   ** Warning ** Requested Object not found in Definitions: FaultModel:Fouling:AirFilter
   ** Warning ** Requested Object not found in Definitions: FaultModel:ThermostatOffset
   ** Warning ** Requested Object not found in Definitions: FaultModel:HumidistatOffset
   ** Warning ** Requested Object not found in Definitions: FaultModel:Fouling:AirFilter
   ** Warning ** CheckConvexity: Surface="SHADINGB3923W9619", Collinear points have been removed.
   ** Warning ** CheckConvexity: Surface="SHADINGB3923W9827", Collinear points have been removed.
   ** Warning ** CheckConvexity: Surface="SHADINGB3923W9572", Collinear points have been removed.
   ** Warning ** CheckConvexity: Surface="SHADINGB398R371", Collinear points have been removed.
   ** Warning ** CheckConvexity: Surface="SHADINGB3923R3580", Collinear points have been removed.
   ** Warning ** CheckConvexity: Surface="SHADINGB3923R3902", Collinear points have been removed.
   ** Warning ** CheckConvexity: Surface="SHADINGB3923R3900", Collinear points have been removed.
   ** Warning ** CheckConvexity: Surface="SHADINGB3923R3914", Collinear points have been removed.
   ** Warning ** CheckConvexity: Surface="SHADINGB3923R3872", Collinear points have been removed.
   ** Warning ** CheckConvexity: Surface="SHADINGB3923R3880", Collinear points have been removed.
   ** Warning ** CheckConvexity: Surface="SHADINGB3923R3857", Collinear points have been removed.
   ** Warning ** CheckConvexity: Surface="SHADINGB3923R3722", Collinear points have been removed.
   ** Warning ** GetHTSurfaceData: Surfaces with interface to Ground found but no "Ground Temperatures" were input.
   **   ~~~   ** Found first in surface=FLOOR3563
   **   ~~~   ** Defaults, constant throughout the year of (18.0) will be used.
   ** Warning ** GetSurfaceData: There are 44 coincident/collinear vertices; These have been deleted unless the deletion would bring the number of surface sides < 3.
   **   ~~~   ** For explicit details on each problem surface, use Output:Diagnostics,DisplayExtraWarnings;
   ** Warning ** ProcessSurfaceVertices: Possible non-planar surface:"SHADINGB3923W9290", Max "out of line"=8.45091E-004 at Vertex # 1
   ** Warning ** ProcessSurfaceVertices: Possible non-planar surface:"SHADINGB3923W9295", Max "out of line"=8.45082E-004 at Vertex # 4
   ** Warning ** ProcessSurfaceVertices: Possible non-planar surface:"SHADINGB3923W9296", Max "out of line"=8.45091E-004 at Vertex # 1
   ** Warning ** ProcessSurfaceVertices: Possible non-planar surface:"SHADINGB3923W9293", Max "out of line"=8.45089E-004 at Vertex # 3
   ** Warning ** ProcessSurfaceVertices: Possible non-planar surface:"SHADINGB3923W9294", Max "out of line"=8.45085E-004 at Vertex # 1
   ** Warning ** ProcessSurfaceVertices: Possible non-planar surface:"SHADINGB3923W9291", Max "out of line"=7.06793E-004 at Vertex # 3
   ** Warning ** ProcessSurfaceVertices: Possible non-planar surface:"SHADINGB3923W9292", Max "out of line"=8.45087E-004 at Vertex # 1
   ** Warning ** ProcessSurfaceVertices: Possible non-planar surface:"SHADINGB3923W9322", Max "out of line"=3.32342E-004 at Vertex # 3
   ** Warning ** ProcessSurfaceVertices: Possible non-planar surface:"SHADINGB3923R3902", Max "out of line"=2.62898E-004 at Vertex # 2
   ** Warning ** ProcessSurfaceVertices: Possible non-planar surface:"SHADINGB3923R3880", Max "out of line"=3.81232E-004 at Vertex # 4
   ** Warning ** ProcessSurfaceVertices: Possible non-planar surface:"SHADINGB3923R3857", Max "out of line"=2.23862E-003 at Vertex # 9
   ** Severe  ** GetObjectDefMaxArgs: Did not find object="ElectricEquipment:ITE:AirCooled" in list of objects.
   ** Warning ** Requested Object not found in Definitions: ElectricEquipment:ITE:AirCooled
   ** Severe  ** GetObjectDefMaxArgs: Did not find object="AirflowNetwork:OccupantVentilationControl" in list of objects.
   ** Severe  ** GetObjectDefMaxArgs: Did not find object="AirflowNetwork:IntraZone:Node" in list of objects.
   ** Severe  ** GetObjectDefMaxArgs: Did not find object="AirflowNetwork:IntraZone:Linkage" in list of objects.
   ** Warning ** Requested Object not found in Definitions: AirflowNetwork:OccupantVentilationControl
   ** Warning ** Requested Object not found in Definitions: SetpointManager:ReturnTemperature:ChilledWater
   ** Severe  ** GetObjectDefMaxArgs: Did not find object="SetpointManager:ReturnTemperature:ChilledWater" in list of objects.
   ** Warning ** Requested Object not found in Definitions: SetpointManager:ReturnTemperature:HotWater
   ** Severe  ** GetObjectDefMaxArgs: Did not find object="SetpointManager:ReturnTemperature:HotWater" in list of objects.
   ** Severe  ** GetObjectDefMaxArgs: Did not find object="SwimmingPool:Indoor" in list of objects.
   ** Warning ** Requested Object not found in Definitions: SwimmingPool:Indoor
   ** Warning ** GetPurchasedAir: ZoneHVAC:IdealLoadsAirSystem="ZONE11466ZONEHVAC:IDEALLOADSAIRSYSTEM blank field
   **   ~~~   ** Outdoor Air Inlet Node Name is blank, but there is outdoor air requested for this system.
   **   ~~~   ** Creating node name =ZONE11466ZONEHVAC:IDEALLOADSAIRSYSTEM OUTDOOR AIR INLET NODE
   ** Warning ** GetPurchasedAir: ZoneHVAC:IdealLoadsAirSystem="ZONE11466ZONEHVAC:IDEALLOADSAIRSYSTEM missing data
   **   ~~~   ** ZONE11466ZONEHVAC:IDEALLOADSAIRSYSTEM OUTDOOR AIR INLET NODE does not appear in an OutdoorAir:NodeList or as an OutdoorAir:Node.
   **   ~~~   ** Adding OutdoorAir:Node=ZONE11466ZONEHVAC:IDEALLOADSAIRSYSTEM OUTDOOR AIR INLET NODE
   ** Warning ** Requested Object not found in Definitions: RoomAirSettings:AirflowNetwork
   ** Warning ** Requested Object not found in Definitions: DemandManager:Ventilation
   ************* Testing Individual Branch Integrity
   ************* All Branches passed integrity testing
   ************* Testing Individual Supply Air Path Integrity
   ************* All Supply Air Paths passed integrity testing
   ************* Testing Individual Return Air Path Integrity
   ************* All Return Air Paths passed integrity testing
   ************* No node connection errors were found.
   ************* Beginning Simulation
   ** Warning ** Requested Object not found in Definitions: Output:Table:Annual
   ** Severe  ** GetObjectDefMaxArgs: Did not find object="Output:Table:Annual" in list of objects.
   ************* Simulation Error Summary *************
   ** Warning ** The following Report Variables were requested but not generated
   **   ~~~   ** because IDF did not contain these elements or misspelled variable name -- check .rdd file
   ************* Key=*, VarName=PEOPLE TOTAL HEATING ENERGY, Frequency=Annual
   ************* Key=*, VarName=LIGHTS TOTAL HEATING ENERGY, Frequency=Annual
   ************* Key=*, VarName=ELECTRIC EQUIPMENT TOTAL HEATING ENERGY, Frequency=Annual
   ************* There are 1 unused objects in input.
   ************* Use Output:Diagnostics,DisplayUnusedObjects; to see them.
   ************* There are 2 unused schedules in input.
   ************* Use Output:Diagnostics,DisplayUnusedSchedules; to see them.
   *************
   ************* ===== Recurring Surface Error Summary =====
   ************* The following surface error messages occurred.
   *************
   ************* Too many figures [>=50000] in shadow overlap errors occurring...
   ************* These occur throughout the year and may occur several times for the same surfaces. You may be able to reduce them by adding OutputDiagnostics,DoNotMirrorDetachedShading;
   *************
   ** Warning ** Too many figures [>=50000] in a shadow overlap
   **   ~~~   ** Overlapping figure=SHADINGB398W235, Surface Class=[Detached Shading:Building]
   **   ~~~   **   This error occurred 1 times.
   **   ~~~   ** Figure being Overlapped=Mir-SHADINGB3923W9476, Surface Class=[Detached Shading:Building]
   *************
   ** Warning ** Too many figures [>=50000] in a shadow overlap
   **   ~~~   ** Overlapping figure=Mir-SHADINGB398W235, Surface Class=[Detached Shading:Building]
   **   ~~~   **   This error occurred 1 times.
   **   ~~~   ** Figure being Overlapped=SHADINGB3923W9517, Surface Class=[Detached Shading:Building]
   *************
   ** Warning ** Too many figures [>=50000] in a shadow overlap
   **   ~~~   ** Overlapping figure=SHADINGB398W232, Surface Class=[Detached Shading:Building]
   **   ~~~   **   This error occurred 2 times.
   **   ~~~   ** Figure being Overlapped=Mir-SHADINGB3923W9584, Surface Class=[Detached Shading:Building]
   **   ~~~   ** Figure being Overlapped=WALL11447, Surface Class=[Wall]
   *************
   ** Warning ** Too many figures [>=50000] in a shadow overlap
   **   ~~~   ** Overlapping figure=Mir-SHADINGB398W232, Surface Class=[Detached Shading:Building]
   **   ~~~   **   This error occurred 2 times.
   **   ~~~   ** Figure being Overlapped=Mir-SHADINGB3923W9570, Surface Class=[Detached Shading:Building]
   **   ~~~   ** Figure being Overlapped=Mir-SHADINGB398R261, Surface Class=[Detached Shading:Building]
   *************
   ** Warning ** Too many figures [>=50000] in a shadow overlap
   **   ~~~   ** Overlapping figure=SHADINGB398W3175, Surface Class=[Detached Shading:Building]
   **   ~~~   **   This error occurred 5 times.
   **   ~~~   ** Figure being Overlapped=Mir-SHADINGB838R803, Surface Class=[Detached Shading:Building]
   **   ~~~   ** Figure being Overlapped=SHADINGB3923W9401, Surface Class=[Detached Shading:Building]
   **   ~~~   ** Figure being Overlapped=SHADINGB3923W9558, Surface Class=[Detached Shading:Building]
   **   ~~~   ** Figure being Overlapped=Mir-SHADINGB398R313, Surface Class=[Detached Shading:Building]
   *************
   ** Warning ** Too many figures [>=50000] in a shadow overlap
   **   ~~~   ** Overlapping figure=Mir-SHADINGB398W3175, Surface Class=[Detached Shading:Building]
   **   ~~~   **   This error occurred 4 times.
   **   ~~~   ** Figure being Overlapped=Mir-SHADINGB838R837, Surface Class=[Detached Shading:Building]
   **   ~~~   ** Figure being Overlapped=Mir-SHADINGB3923W9531, Surface Class=[Detached Shading:Building]
   *************
   ** Warning ** Too many figures [>=50000] in a shadow overlap
   **   ~~~   ** Overlapping figure=SHADINGB398W239, Surface Class=[Detached Shading:Building]
   **   ~~~   **   This error occurred 3 times.
   **   ~~~   ** Figure being Overlapped=WALL3561, Surface Class=[Wall]
   **   ~~~   ** Figure being Overlapped=SHADINGB3923W9476, Surface Class=[Detached Shading:Building]
   *************
   ** Warning ** Too many figures [>=50000] in a shadow overlap
   **   ~~~   ** Overlapping figure=Mir-SHADINGB398W239, Surface Class=[Detached Shading:Building]
   **   ~~~   **   This error occurred 2 times.
   **   ~~~   ** Figure being Overlapped=WALL11448, Surface Class=[Wall]
   **   ~~~   ** Figure being Overlapped=Mir-SHADINGB3923R3669, Surface Class=[Detached Shading:Building]
   *************
   ** Warning ** Too many figures [>=50000] in a shadow overlap
   **   ~~~   ** Overlapping figure=SHADINGB398W257, Surface Class=[Detached Shading:Building]
   **   ~~~   **   This error occurred 1 times.
   **   ~~~   ** Figure being Overlapped=WALL11444, Surface Class=[Wall]
   *************
   ** Warning ** Too many figures [>=50000] in a shadow overlap
   **   ~~~   ** Overlapping figure=Mir-SHADINGB398W257, Surface Class=[Detached Shading:Building]
   **   ~~~   **   This error occurred 2 times.
   **   ~~~   ** Figure being Overlapped=WALL3561, Surface Class=[Wall]
   **   ~~~   ** Figure being Overlapped=WALL11446, Surface Class=[Wall]
   *************
   ** Warning ** Too many figures [>=50000] in a shadow overlap
   **   ~~~   ** Overlapping figure=SHADINGB398W3280, Surface Class=[Detached Shading:Building]
   **   ~~~   **   This error occurred 2 times.
   **   ~~~   ** Figure being Overlapped=WALL3561, Surface Class=[Wall]
   **   ~~~   ** Figure being Overlapped=WALL99114231, Surface Class=[Wall]
   *************
   ** Warning ** Too many figures [>=50000] in a shadow overlap
   **   ~~~   ** Overlapping figure=Mir-SHADINGB398W3280, Surface Class=[Detached Shading:Building]
   **   ~~~   **   This error occurred 1 times.
   **   ~~~   ** Figure being Overlapped=WALL11448, Surface Class=[Wall]
   *************
   ** Warning ** Too many figures [>=50000] in a shadow overlap
   **   ~~~   ** Overlapping figure=SHADINGB398W294, Surface Class=[Detached Shading:Building]
   **   ~~~   **   This error occurred 2 times.
   **   ~~~   ** Figure being Overlapped=WALL3561, Surface Class=[Wall]
   *************
   ** Warning ** Too many figures [>=50000] in a shadow overlap
   **   ~~~   ** Overlapping figure=Mir-SHADINGB398W294, Surface Class=[Detached Shading:Building]
   **   ~~~   **   This error occurred 3 times.
   **   ~~~   ** Figure being Overlapped=WALL11448, Surface Class=[Wall]
   *************
   ** Warning ** Too many figures [>=50000] in a shadow overlap
   **   ~~~   ** Overlapping figure=Mir-SHADINGB838W5847, Surface Class=[Detached Shading:Building]
   **   ~~~   **   This error occurred 3 times.
   **   ~~~   ** Figure being Overlapped=SHADINGB398W3198, Surface Class=[Detached Shading:Building]
   **   ~~~   ** Figure being Overlapped=SHADINGB398W3204, Surface Class=[Detached Shading:Building]
   *************
   ** Warning ** Too many figures [>=50000] in a shadow overlap
   **   ~~~   ** Overlapping figure=SHADINGB838W5948, Surface Class=[Detached Shading:Building]
   **   ~~~   **   This error occurred 2 times.
   **   ~~~   ** Figure being Overlapped=SHADINGB398W3196, Surface Class=[Detached Shading:Building]
   **   ~~~   ** Figure being Overlapped=Mir-SHADINGB398W3307, Surface Class=[Detached Shading:Building]
   *************
   ** Warning ** Too many figures [>=50000] in a shadow overlap
   **   ~~~   ** Overlapping figure=Mir-SHADINGB398W253, Surface Class=[Detached Shading:Building]
   **   ~~~   **   This error occurred 1 times.
   **   ~~~   ** Figure being Overlapped=WALL11425, Surface Class=[Wall]
   *************
   ** Warning ** Too many figures [>=50000] in a shadow overlap
   **   ~~~   ** Overlapping figure=SHADINGB838W5895, Surface Class=[Detached Shading:Building]
   **   ~~~   **   This error occurred 3 times.
   **   ~~~   ** Figure being Overlapped=WALL11425, Surface Class=[Wall]
   **   ~~~   ** Figure being Overlapped=Mir-SHADINGB3923W9544, Surface Class=[Detached Shading:Building]
   *************
   ** Warning ** Too many figures [>=50000] in a shadow overlap
   **   ~~~   ** Overlapping figure=Mir-SHADINGB838W5895, Surface Class=[Detached Shading:Building]
   **   ~~~   **   This error occurred 2 times.
   **   ~~~   ** Figure being Overlapped=WALL99114231, Surface Class=[Wall]
   **   ~~~   ** Figure being Overlapped=Mir-SHADINGB398R313, Surface Class=[Detached Shading:Building]
   *************
   ** Warning ** Too many figures [>=50000] in a shadow overlap
   **   ~~~   ** Overlapping figure=SHADINGB398W242, Surface Class=[Detached Shading:Building]
   **   ~~~   **   This error occurred 3 times.
   **   ~~~   ** Figure being Overlapped=SHADINGB3923W9544, Surface Class=[Detached Shading:Building]
   **   ~~~   ** Figure being Overlapped=Mir-SHADINGB3923R3580, Surface Class=[Detached Shading:Building]
   *************
   ** Warning ** Too many figures [>=50000] in a shadow overlap
   **   ~~~   ** Overlapping figure=SHADINGB838W5819, Surface Class=[Detached Shading:Building]
   **   ~~~   **   This error occurred 7 times.
   **   ~~~   ** Figure being Overlapped=SHADINGB3923W9476, Surface Class=[Detached Shading:Building]
   **   ~~~   ** Figure being Overlapped=Mir-SHADINGB398W3233, Surface Class=[Detached Shading:Building]
   **   ~~~   ** Figure being Overlapped=Mir-SHADINGB398W324, Surface Class=[Detached Shading:Building]
   *************
   ** Warning ** Too many figures [>=50000] in a shadow overlap
   **   ~~~   ** Overlapping figure=Mir-SHADINGB838W5819, Surface Class=[Detached Shading:Building]
   **   ~~~   **   This error occurred 6 times.
   **   ~~~   ** Figure being Overlapped=SHADINGB3923W9504, Surface Class=[Detached Shading:Building]
   **   ~~~   ** Figure being Overlapped=Mir-SHADINGB398W3307, Surface Class=[Detached Shading:Building]
   **   ~~~   ** Figure being Overlapped=SHADINGB398W3258, Surface Class=[Detached Shading:Building]
   *************
   ** Warning ** Too many figures [>=50000] in a shadow overlap
   **   ~~~   ** Overlapping figure=SHADINGB398W3079, Surface Class=[Detached Shading:Building]
   **   ~~~   **   This error occurred 2 times.
   **   ~~~   ** Figure being Overlapped=Mir-SHADINGB3923W9544, Surface Class=[Detached Shading:Building]
   *************
   ** Warning ** Too many figures [>=50000] in a shadow overlap
   **   ~~~   ** Overlapping figure=Mir-SHADINGB398W3164, Surface Class=[Detached Shading:Building]
   **   ~~~   **   This error occurred 2 times.
   **   ~~~   ** Figure being Overlapped=SHADINGB3923W9341, Surface Class=[Detached Shading:Building]
   **   ~~~   ** Figure being Overlapped=Mir-SHADINGB398R261, Surface Class=[Detached Shading:Building]
   *************
   ** Warning ** Too many figures [>=50000] in a shadow overlap
   **   ~~~   ** Overlapping figure=SHADINGB398W311, Surface Class=[Detached Shading:Building]
   **   ~~~   **   This error occurred 3 times.
   **   ~~~   ** Figure being Overlapped=Mir-SHADINGB3923R3779, Surface Class=[Detached Shading:Building]
   **   ~~~   ** Figure being Overlapped=WALL11445, Surface Class=[Wall]
   *************
   ** Warning ** Too many figures [>=50000] in a shadow overlap
   **   ~~~   ** Overlapping figure=Mir-SHADINGB398W311, Surface Class=[Detached Shading:Building]
   **   ~~~   **   This error occurred 2 times.
   **   ~~~   ** Figure being Overlapped=Mir-SHADINGB3923R3788, Surface Class=[Detached Shading:Building]
   **   ~~~   ** Figure being Overlapped=WALL11444, Surface Class=[Wall]
   *************
   ** Warning ** Too many figures [>=50000] in a shadow overlap
   **   ~~~   ** Overlapping figure=SHADINGB398W244, Surface Class=[Detached Shading:Building]
   **   ~~~   **   This error occurred 3 times.
   **   ~~~   ** Figure being Overlapped=WALL11434, Surface Class=[Wall]
   *************
   ** Warning ** Too many figures [>=50000] in a shadow overlap
   **   ~~~   ** Overlapping figure=Mir-SHADINGB398W244, Surface Class=[Detached Shading:Building]
   **   ~~~   **   This error occurred 4 times.
   **   ~~~   ** Figure being Overlapped=WALL11432, Surface Class=[Wall]
   **   ~~~   ** Figure being Overlapped=SHADINGB3923W9476, Surface Class=[Detached Shading:Building]
   *************
   ** Warning ** Too many figures [>=50000] in a shadow overlap
   **   ~~~   ** Overlapping figure=Mir-SHADINGB838W5897, Surface Class=[Detached Shading:Building]
   **   ~~~   **   This error occurred 2 times.
   **   ~~~   ** Figure being Overlapped=Mir-SHADINGB3923W9531, Surface Class=[Detached Shading:Building]
   *************
   ** Warning ** Too many figures [>=50000] in a shadow overlap
   **   ~~~   ** Overlapping figure=Mir-SHADINGB398W3012, Surface Class=[Detached Shading:Building]
   **   ~~~   **   This error occurred 4 times.
   **   ~~~   ** Figure being Overlapped=SHADINGB3923W9404, Surface Class=[Detached Shading:Building]
   **   ~~~   ** Figure being Overlapped=WALL11447, Surface Class=[Wall]
   *************
   ** Warning ** Too many figures [>=50000] in a shadow overlap
   **   ~~~   ** Overlapping figure=Mir-SHADINGB398W3010, Surface Class=[Detached Shading:Building]
   **   ~~~   **   This error occurred 3 times.
   **   ~~~   ** Figure being Overlapped=Mir-SHADINGB3923W9461, Surface Class=[Detached Shading:Building]
   **   ~~~   ** Figure being Overlapped=SHADINGB3923W3760, Surface Class=[Detached Shading:Building]
   *************
   ** Warning ** Too many figures [>=50000] in a shadow overlap
   **   ~~~   ** Overlapping figure=SHADINGB398W3010, Surface Class=[Detached Shading:Building]
   **   ~~~   **   This error occurred 1 times.
   **   ~~~   ** Figure being Overlapped=Mir-SHADINGB3923W9544, Surface Class=[Detached Shading:Building]
   *************
   ** Warning ** Too many figures [>=50000] in a shadow overlap
   **   ~~~   ** Overlapping figure=Mir-SHADINGB398W3154, Surface Class=[Detached Shading:Building]
   **   ~~~   **   This error occurred 1 times.
   **   ~~~   ** Figure being Overlapped=Mir-SHADINGB398W3204, Surface Class=[Detached Shading:Building]
   *************
   ** Warning ** Too many figures [>=50000] in a shadow overlap
   **   ~~~   ** Overlapping figure=SHADINGB398W3194, Surface Class=[Detached Shading:Building]
   **   ~~~   **   This error occurred 1 times.
   **   ~~~   ** Figure being Overlapped=Mir-SHADINGB398W3198, Surface Class=[Detached Shading:Building]
   *************
   ** Warning ** Too many figures [>=50000] in a shadow overlap
   **   ~~~   ** Overlapping figure=SHADINGB398W223, Surface Class=[Detached Shading:Building]
   **   ~~~   **   This error occurred 2 times.
   **   ~~~   ** Figure being Overlapped=Mir-SHADINGB3923W9517, Surface Class=[Detached Shading:Building]
   *************
   ** Warning ** Too many figures [>=50000] in a shadow overlap
   **   ~~~   ** Overlapping figure=Mir-SHADINGB398W223, Surface Class=[Detached Shading:Building]
   **   ~~~   **   This error occurred 1 times.
   **   ~~~   ** Figure being Overlapped=Mir-SHADINGB3923W9504, Surface Class=[Detached Shading:Building]
   *************
   ** Warning ** Too many figures [>=50000] in a shadow overlap
   **   ~~~   ** Overlapping figure=SHADINGB797W5679, Surface Class=[Detached Shading:Building]
   **   ~~~   **   This error occurred 1 times.
   **   ~~~   ** Figure being Overlapped=Mir-SHADINGB3923W9517, Surface Class=[Detached Shading:Building]
   *************
   ** Warning ** Too many figures [>=50000] in a shadow overlap
   **   ~~~   ** Overlapping figure=Mir-SHADINGB797W5679, Surface Class=[Detached Shading:Building]
   **   ~~~   **   This error occurred 1 times.
   **   ~~~   ** Figure being Overlapped=Mir-SHADINGB3923W9504, Surface Class=[Detached Shading:Building]
   *************
   ** Warning ** Too many figures [>=50000] in a shadow overlap
   **   ~~~   ** Overlapping figure=Mir-SHADINGB398W228, Surface Class=[Detached Shading:Building]
   **   ~~~   **   This error occurred 2 times.
   **   ~~~   ** Figure being Overlapped=WALL11444, Surface Class=[Wall]
   *************
   ** Warning ** Too many figures [>=50000] in a shadow overlap
   **   ~~~   ** Overlapping figure=SHADINGB398W3386, Surface Class=[Detached Shading:Building]
   **   ~~~   **   This error occurred 1 times.
   **   ~~~   ** Figure being Overlapped=WALL3561, Surface Class=[Wall]
   *************
   ** Warning ** Too many figures [>=50000] in a shadow overlap
   **   ~~~   ** Overlapping figure=Mir-SHADINGB838W5832, Surface Class=[Detached Shading:Building]
   **   ~~~   **   This error occurred 3 times.
   **   ~~~   ** Figure being Overlapped=Mir-SHADINGB3923W9490, Surface Class=[Detached Shading:Building]
   **   ~~~   ** Figure being Overlapped=SHADINGB398W3196, Surface Class=[Detached Shading:Building]
   *************
   ** Warning ** Too many figures [>=50000] in a shadow overlap
   **   ~~~   ** Overlapping figure=Mir-SHADINGB838W5892, Surface Class=[Detached Shading:Building]
   **   ~~~   **   This error occurred 1 times.
   **   ~~~   ** Figure being Overlapped=SHADINGB3923W9584, Surface Class=[Detached Shading:Building]
   *************
   ** Warning ** Too many figures [>=50000] in a shadow overlap
   **   ~~~   ** Overlapping figure=SHADINGB838W5933, Surface Class=[Detached Shading:Building]
   **   ~~~   **   This error occurred 2 times.
   **   ~~~   ** Figure being Overlapped=SHADINGB3923W9570, Surface Class=[Detached Shading:Building]
   **   ~~~   ** Figure being Overlapped=Mir-SHADINGB3923W9261, Surface Class=[Detached Shading:Building]
   *************
   ** Warning ** Too many figures [>=50000] in a shadow overlap
   **   ~~~   ** Overlapping figure=SHADINGB838W5926, Surface Class=[Detached Shading:Building]
   **   ~~~   **   This error occurred 2 times.
   **   ~~~   ** Figure being Overlapped=SHADINGB3923W9447, Surface Class=[Detached Shading:Building]
   **   ~~~   ** Figure being Overlapped=Mir-SHADINGB3923W9309, Surface Class=[Detached Shading:Building]
   *************
   ** Warning ** Too many figures [>=50000] in a shadow overlap
   **   ~~~   ** Overlapping figure=Mir-SHADINGB838W5926, Surface Class=[Detached Shading:Building]
   **   ~~~   **   This error occurred 2 times.
   **   ~~~   ** Figure being Overlapped=Mir-SHADINGB3923W9437, Surface Class=[Detached Shading:Building]
   **   ~~~   ** Figure being Overlapped=Mir-SHADINGB3923W9320, Surface Class=[Detached Shading:Building]
   *************
   ** Warning ** Too many figures [>=50000] in a shadow overlap
   **   ~~~   ** Overlapping figure=SHADINGB398W228, Surface Class=[Detached Shading:Building]
   **   ~~~   **   This error occurred 2 times.
   **   ~~~   ** Figure being Overlapped=WALL11445, Surface Class=[Wall]
   **   ~~~   ** Figure being Overlapped=Mir-SHADINGB398R313, Surface Class=[Detached Shading:Building]
   *************
   ** Warning ** Too many figures [>=50000] in a shadow overlap
   **   ~~~   ** Overlapping figure=Mir-SHADINGB398W2906, Surface Class=[Detached Shading:Building]
   **   ~~~   **   This error occurred 1 times.
   **   ~~~   ** Figure being Overlapped=WALL11448, Surface Class=[Wall]
   *************
   ** Warning ** Too many figures [>=50000] in a shadow overlap
   **   ~~~   ** Overlapping figure=SHADINGB398W2884, Surface Class=[Detached Shading:Building]
   **   ~~~   **   This error occurred 2 times.
   **   ~~~   ** Figure being Overlapped=Mir-SHADINGB3923W9504, Surface Class=[Detached Shading:Building]
   **   ~~~   ** Figure being Overlapped=Mir-SHADINGB398R343, Surface Class=[Detached Shading:Building]
   *************
   ** Warning ** Too many figures [>=50000] in a shadow overlap
   **   ~~~   ** Overlapping figure=Mir-SHADINGB398W2884, Surface Class=[Detached Shading:Building]
   **   ~~~   **   This error occurred 4 times.
   **   ~~~   ** Figure being Overlapped=SHADINGB3923W9558, Surface Class=[Detached Shading:Building]
   **   ~~~   ** Figure being Overlapped=Mir-SHADINGB3566R3565, Surface Class=[Detached Shading:Building]
   **   ~~~   ** Figure being Overlapped=Mir-SHADINGB398R330, Surface Class=[Detached Shading:Building]
   *************
   ** Warning ** Too many figures [>=50000] in a shadow overlap
   **   ~~~   ** Overlapping figure=Mir-SHADINGB398W3079, Surface Class=[Detached Shading:Building]
   **   ~~~   **   This error occurred 1 times.
   **   ~~~   ** Figure being Overlapped=SHADINGB3923W3760, Surface Class=[Detached Shading:Building]
   *************
   ** Warning ** Too many figures [>=50000] in a shadow overlap
   **   ~~~   ** Overlapping figure=SHADINGB398W3508, Surface Class=[Detached Shading:Building]
   **   ~~~   **   This error occurred 2 times.
   **   ~~~   ** Figure being Overlapped=Mir-SHADINGB3923W9544, Surface Class=[Detached Shading:Building]
   *************
   ** Warning ** Too many figures [>=50000] in a shadow overlap
   **   ~~~   ** Overlapping figure=Mir-SHADINGB398W3508, Surface Class=[Detached Shading:Building]
   **   ~~~   **   This error occurred 2 times.
   **   ~~~   ** Figure being Overlapped=SHADINGB3923W3760, Surface Class=[Detached Shading:Building]
   *************
   ** Warning ** Too many figures [>=50000] in a shadow overlap
   **   ~~~   ** Overlapping figure=SHADINGB398W3405, Surface Class=[Detached Shading:Building]
   **   ~~~   **   This error occurred 1 times.
   **   ~~~   ** Figure being Overlapped=Mir-SHADINGB3923W9322, Surface Class=[Detached Shading:Building]
   *************
   ** Warning ** Too many figures [>=50000] in a shadow overlap
   **   ~~~   ** Overlapping figure=Mir-SHADINGB398W3405, Surface Class=[Detached Shading:Building]
   **   ~~~   **   This error occurred 1 times.
   **   ~~~   ** Figure being Overlapped=Mir-SHADINGB3923W9324, Surface Class=[Detached Shading:Building]
   *************
   ** Warning ** Too many figures [>=50000] in a shadow overlap
   **   ~~~   ** Overlapping figure=Mir-SHADINGB398W3323, Surface Class=[Detached Shading:Building]
   **   ~~~   **   This error occurred 2 times.
   **   ~~~   ** Figure being Overlapped=Mir-SHADINGB3566R3549, Surface Class=[Detached Shading:Building]
   **   ~~~   ** Figure being Overlapped=SHADINGB3923W9325, Surface Class=[Detached Shading:Building]
   *************
   ** Warning ** Too many figures [>=50000] in a shadow overlap
   **   ~~~   ** Overlapping figure=SHADINGB398W2920, Surface Class=[Detached Shading:Building]
   **   ~~~   **   This error occurred 1 times.
   **   ~~~   ** Figure being Overlapped=Mir-SHADINGB797R696, Surface Class=[Detached Shading:Building]
   *************
   ** Warning ** Too many figures [>=50000] in a shadow overlap
   **   ~~~   ** Overlapping figure=SHADINGB398W2935, Surface Class=[Detached Shading:Building]
   **   ~~~   **   This error occurred 1 times.
   **   ~~~   ** Figure being Overlapped=WALL11436, Surface Class=[Wall]
   *************
   ** Warning ** Too many figures [>=50000] in a shadow overlap
   **   ~~~   ** Overlapping figure=Mir-SHADINGB398W2935, Surface Class=[Detached Shading:Building]
   **   ~~~   **   This error occurred 1 times.
   **   ~~~   ** Figure being Overlapped=WALL11435, Surface Class=[Wall]
   *************
   ** Warning ** Too many figures [>=50000] in a shadow overlap
   **   ~~~   ** Overlapping figure=SHADINGB838W5847, Surface Class=[Detached Shading:Building]
   **   ~~~   **   This error occurred 2 times.
   **   ~~~   ** Figure being Overlapped=SHADINGB398W3204, Surface Class=[Detached Shading:Building]
   **   ~~~   ** Figure being Overlapped=Mir-SHADINGB398W3307, Surface Class=[Detached Shading:Building]
   *************
   ** Warning ** Too many figures [>=50000] in a shadow overlap
   **   ~~~   ** Overlapping figure=SHADINGB398W3258, Surface Class=[Detached Shading:Building]
   **   ~~~   **   This error occurred 1 times.
   **   ~~~   ** Figure being Overlapped=WALL11447, Surface Class=[Wall]
   *************
   ** Warning ** Too many figures [>=50000] in a shadow overlap
   **   ~~~   ** Overlapping figure=SHADINGB398W3453, Surface Class=[Detached Shading:Building]
   **   ~~~   **   This error occurred 1 times.
   **   ~~~   ** Figure being Overlapped=SHADINGB3923W9212, Surface Class=[Detached Shading:Building]
   *************
   ** Warning ** Too many figures [>=50000] in a shadow overlap
   **   ~~~   ** Overlapping figure=Mir-SHADINGB398W3453, Surface Class=[Detached Shading:Building]
   **   ~~~   **   This error occurred 1 times.
   **   ~~~   ** Figure being Overlapped=Mir-SHADINGB3923W9228, Surface Class=[Detached Shading:Building]
   *************
   ** Warning ** Too many figures [>=50000] in a shadow overlap
   **   ~~~   ** Overlapping figure=SHADINGB398W236, Surface Class=[Detached Shading:Building]
   **   ~~~   **   This error occurred 2 times.
   **   ~~~   ** Figure being Overlapped=Mir-SHADINGB3566R3549, Surface Class=[Detached Shading:Building]
   **   ~~~   ** Figure being Overlapped=Mir-SHADINGB3923W9531, Surface Class=[Detached Shading:Building]
   *************
   ** Warning ** Too many figures [>=50000] in a shadow overlap
   **   ~~~   ** Overlapping figure=SHADINGB398W3323, Surface Class=[Detached Shading:Building]
   **   ~~~   **   This error occurred 1 times.
   **   ~~~   ** Figure being Overlapped=SHADINGB3923W9324, Surface Class=[Detached Shading:Building]
   *************
   ** Warning ** Too many figures [>=50000] in a shadow overlap
   **   ~~~   ** Overlapping figure=Mir-SHADINGB398W3551, Surface Class=[Detached Shading:Building]
   **   ~~~   **   This error occurred 1 times.
   **   ~~~   ** Figure being Overlapped=WALL3561, Surface Class=[Wall]
   *************
   ** Warning ** Too many figures [>=50000] in a shadow overlap
   **   ~~~   ** Overlapping figure=SHADINGB398W3057, Surface Class=[Detached Shading:Building]
   **   ~~~   **   This error occurred 1 times.
   **   ~~~   ** Figure being Overlapped=WALL11448, Surface Class=[Wall]
   *************
   ** Warning ** Too many figures [>=50000] in a shadow overlap
   **   ~~~   ** Overlapping figure=SHADINGB398W3103, Surface Class=[Detached Shading:Building]
   **   ~~~   **   This error occurred 1 times.
   **   ~~~   ** Figure being Overlapped=Mir-SHADINGB398R343, Surface Class=[Detached Shading:Building]
   *************
   ** Warning ** Too many figures [>=50000] in a shadow overlap
   **   ~~~   ** Overlapping figure=Mir-SHADINGB398W3103, Surface Class=[Detached Shading:Building]
   **   ~~~   **   This error occurred 1 times.
   **   ~~~   ** Figure being Overlapped=Mir-SHADINGB398R330, Surface Class=[Detached Shading:Building]
   *************
   ** Warning ** Too many figures [>=50000] in a shadow overlap
   **   ~~~   ** Overlapping figure=SHADINGB398W247, Surface Class=[Detached Shading:Building]
   **   ~~~   **   This error occurred 1 times.
   **   ~~~   ** Figure being Overlapped=Mir-SHADINGB3566R3565, Surface Class=[Detached Shading:Building]
   *************
   ** Warning ** Too many figures [>=50000] in a shadow overlap
   **   ~~~   ** Overlapping figure=Mir-SHADINGB398W247, Surface Class=[Detached Shading:Building]
   **   ~~~   **   This error occurred 1 times.
   **   ~~~   ** Figure being Overlapped=Mir-SHADINGB3566R3549, Surface Class=[Detached Shading:Building]
   *************
   ** Warning ** Too many figures [>=50000] in a shadow overlap
   **   ~~~   ** Overlapping figure=SHADINGB838W5880, Surface Class=[Detached Shading:Building]
   **   ~~~   **   This error occurred 2 times.
   **   ~~~   ** Figure being Overlapped=SHADINGB398W3204, Surface Class=[Detached Shading:Building]
   *************
   ** Warning ** Too many figures [>=50000] in a shadow overlap
   **   ~~~   ** Overlapping figure=Mir-SHADINGB398W3526, Surface Class=[Detached Shading:Building]
   **   ~~~   **   This error occurred 1 times.
   **   ~~~   ** Figure being Overlapped=Mir-SHADINGB3923W9919, Surface Class=[Detached Shading:Building]
   *************
   ** Warning ** Too many figures [>=50000] in a shadow overlap
   **   ~~~   ** Overlapping figure=SHADINGB398W2967, Surface Class=[Detached Shading:Building]
   **   ~~~   **   This error occurred 1 times.
   **   ~~~   ** Figure being Overlapped=Mir-SHADINGB3923W9996, Surface Class=[Detached Shading:Building]
   *************
   ** Warning ** Too many figures [>=50000] in a shadow overlap
   **   ~~~   ** Overlapping figure=SHADINGB398W3454, Surface Class=[Detached Shading:Building]
   **   ~~~   **   This error occurred 1 times.
   **   ~~~   ** Figure being Overlapped=SHADINGB3923W9322, Surface Class=[Detached Shading:Building]
   *************
   ** Warning ** Too many figures [>=50000] in a shadow overlap
   **   ~~~   ** Overlapping figure=Mir-SHADINGB398W3454, Surface Class=[Detached Shading:Building]
   **   ~~~   **   This error occurred 1 times.
   **   ~~~   ** Figure being Overlapped=SHADINGB3923W9324, Surface Class=[Detached Shading:Building]
   *************
   ** Warning ** Too many figures [>=50000] in a shadow overlap
   **   ~~~   ** Overlapping figure=Mir-SHADINGB838W5933, Surface Class=[Detached Shading:Building]
   **   ~~~   **   This error occurred 1 times.
   **   ~~~   ** Figure being Overlapped=Mir-SHADINGB3923W9262, Surface Class=[Detached Shading:Building]
   *************
   ** Warning ** Too many figures [>=50000] in a shadow overlap
   **   ~~~   ** Overlapping figure=Mir-SHADINGB838W5948, Surface Class=[Detached Shading:Building]
   **   ~~~   **   This error occurred 2 times.
   **   ~~~   ** Figure being Overlapped=SHADINGB398W3196, Surface Class=[Detached Shading:Building]
   **   ~~~   ** Figure being Overlapped=SHADINGB398W3204, Surface Class=[Detached Shading:Building]
   *************
   ** Warning ** Too many figures [>=50000] in a shadow overlap
   **   ~~~   ** Overlapping figure=SHADINGB838W5832, Surface Class=[Detached Shading:Building]
   **   ~~~   **   This error occurred 1 times.
   **   ~~~   ** Figure being Overlapped=Mir-SHADINGB398W324, Surface Class=[Detached Shading:Building]
   *************
   ** Warning ** Too many figures [>=50000] in a shadow overlap
   **   ~~~   ** Overlapping figure=SHADINGB398W3248, Surface Class=[Detached Shading:Building]
   **   ~~~   **   This error occurred 1 times.
   **   ~~~   ** Figure being Overlapped=WALL3561, Surface Class=[Wall]
   *************
   ** Warning ** Too many figures [>=50000] in a shadow overlap
   **   ~~~   ** Overlapping figure=Mir-SHADINGB398W3248, Surface Class=[Detached Shading:Building]
   **   ~~~   **   This error occurred 1 times.
   **   ~~~   ** Figure being Overlapped=WALL11448, Surface Class=[Wall]
   *************
   ** Warning ** Too many figures [>=50000] in a shadow overlap
   **   ~~~   ** Overlapping figure=Mir-SHADINGB797W5763, Surface Class=[Detached Shading:Building]
   **   ~~~   **   This error occurred 1 times.
   **   ~~~   ** Figure being Overlapped=Mir-SHADINGB398W232, Surface Class=[Detached Shading:Building]
   *************
   ** Warning ** Too many figures [>=50000] in a shadow overlap
   **   ~~~   ** Overlapping figure=SHADINGB797W5387, Surface Class=[Detached Shading:Building]
   **   ~~~   **   This error occurred 1 times.
   **   ~~~   ** Figure being Overlapped=Mir-SHADINGB398W228, Surface Class=[Detached Shading:Building]
   *************
   ** Warning ** Too many figures [>=50000] in a shadow overlap
   **   ~~~   ** Overlapping figure=SHADINGB838W5865, Surface Class=[Detached Shading:Building]
   **   ~~~   **   This error occurred 2 times.
   **   ~~~   ** Figure being Overlapped=SHADINGB398W3258, Surface Class=[Detached Shading:Building]
   **   ~~~   ** Figure being Overlapped=WALL3561, Surface Class=[Wall]
   *************
   ** Warning ** Too many figures [>=50000] in a shadow overlap
   **   ~~~   ** Overlapping figure=Mir-SHADINGB838W5865, Surface Class=[Detached Shading:Building]
   **   ~~~   **   This error occurred 2 times.
   **   ~~~   ** Figure being Overlapped=SHADINGB398W3248, Surface Class=[Detached Shading:Building]
   **   ~~~   ** Figure being Overlapped=WALL11448, Surface Class=[Wall]
   *************
   ** Warning ** Too many figures [>=50000] in a shadow overlap
   **   ~~~   ** Overlapping figure=Mir-SHADINGB398W226, Surface Class=[Detached Shading:Building]
   **   ~~~   **   This error occurred 1 times.
   **   ~~~   ** Figure being Overlapped=SHADINGB3923W9544, Surface Class=[Detached Shading:Building]
   *************
   ** Warning ** Too many figures [>=50000] in a shadow overlap
   **   ~~~   ** Overlapping figure=SHADINGB398W3376, Surface Class=[Detached Shading:Building]
   **   ~~~   **   This error occurred 2 times.
   **   ~~~   ** Figure being Overlapped=Mir-SHADINGB3923W3760, Surface Class=[Detached Shading:Building]
   **   ~~~   ** Figure being Overlapped=WALL3561, Surface Class=[Wall]
   *************
   ** Warning ** Too many figures [>=50000] in a shadow overlap
   **   ~~~   ** Overlapping figure=Mir-SHADINGB398W3376, Surface Class=[Detached Shading:Building]
   **   ~~~   **   This error occurred 2 times.
   **   ~~~   ** Figure being Overlapped=WALL11448, Surface Class=[Wall]
   **   ~~~   ** Figure being Overlapped=Mir-SHADINGB3566R3549, Surface Class=[Detached Shading:Building]
   *************
   ** Warning ** Too many figures [>=50000] in a shadow overlap
   **   ~~~   ** Overlapping figure=SHADINGB3923W9657, Surface Class=[Detached Shading:Building]
   **   ~~~   **   This error occurred 1 times.
   **   ~~~   ** Figure being Overlapped=WALL3561, Surface Class=[Wall]
   *************
   ** Warning ** Too many figures [>=50000] in a shadow overlap
   **   ~~~   ** Overlapping figure=Mir-SHADINGB3923W9657, Surface Class=[Detached Shading:Building]
   **   ~~~   **   This error occurred 1 times.
   **   ~~~   ** Figure being Overlapped=WALL11448, Surface Class=[Wall]
   *************
   ** Warning ** Too many figures [>=50000] in a shadow overlap
   **   ~~~   ** Overlapping figure=SHADINGB398W2906, Surface Class=[Detached Shading:Building]
   **   ~~~   **   This error occurred 1 times.
   **   ~~~   ** Figure being Overlapped=Mir-SHADINGB797R696, Surface Class=[Detached Shading:Building]
   *************
   ** Warning ** Too many figures [>=50000] in a shadow overlap
   **   ~~~   ** Overlapping figure=SHADINGB3923W9770, Surface Class=[Detached Shading:Building]
   **   ~~~   **   This error occurred 1 times.
   **   ~~~   ** Figure being Overlapped=Mir-SHADINGB3923R3669, Surface Class=[Detached Shading:Building]
   *************
   ** Warning ** Too many figures [>=50000] in a shadow overlap
   **   ~~~   ** Overlapping figure=Mir-SHADINGB3923W9770, Surface Class=[Detached Shading:Building]
   **   ~~~   **   This error occurred 1 times.
   **   ~~~   ** Figure being Overlapped=Mir-SHADINGB3923R3580, Surface Class=[Detached Shading:Building]
   *************
   ** Warning ** Too many figures [>=50000] in a shadow overlap
   **   ~~~   ** Overlapping figure=SHADINGB398W296, Surface Class=[Detached Shading:Building]
   **   ~~~   **   This error occurred 2 times.
   **   ~~~   ** Figure being Overlapped=WALL11436, Surface Class=[Wall]
   **   ~~~   ** Figure being Overlapped=WALL11432, Surface Class=[Wall]
   *************
   ** Warning ** Too many figures [>=50000] in a shadow overlap
   **   ~~~   ** Overlapping figure=Mir-SHADINGB398W296, Surface Class=[Detached Shading:Building]
   **   ~~~   **   This error occurred 2 times.
   **   ~~~   ** Figure being Overlapped=WALL11435, Surface Class=[Wall]
   **   ~~~   ** Figure being Overlapped=WALL11421, Surface Class=[Wall]
   *************
   ** Warning ** Too many figures [>=50000] in a shadow overlap
   **   ~~~   ** Overlapping figure=SHADINGB398W3322, Surface Class=[Detached Shading:Building]
   **   ~~~   **   This error occurred 1 times.
   **   ~~~   ** Figure being Overlapped=WALL11447, Surface Class=[Wall]
   *************
   ** Warning ** Too many figures [>=50000] in a shadow overlap
   **   ~~~   ** Overlapping figure=Mir-SHADINGB398W254, Surface Class=[Detached Shading:Building]
   **   ~~~   **   This error occurred 1 times.
   **   ~~~   ** Figure being Overlapped=WALL11421, Surface Class=[Wall]
   *************
   ** Warning ** Too many figures [>=50000] in a shadow overlap
   **   ~~~   ** Overlapping figure=SHADINGB398W253, Surface Class=[Detached Shading:Building]
   **   ~~~   **   This error occurred 1 times.
   **   ~~~   ** Figure being Overlapped=WALL11422, Surface Class=[Wall]
   *************
   ** Warning ** Too many figures [>=50000] in a shadow overlap
   **   ~~~   ** Overlapping figure=Mir-SHADINGB398W3322, Surface Class=[Detached Shading:Building]
   **   ~~~   **   This error occurred 1 times.
   **   ~~~   ** Figure being Overlapped=WALL11434, Surface Class=[Wall]
   *************
   ** Warning ** Too many figures [>=50000] in a shadow overlap
   **   ~~~   ** Overlapping figure=Mir-SHADINGB398W2819, Surface Class=[Detached Shading:Building]
   **   ~~~   **   This error occurred 1 times.
   **   ~~~   ** Figure being Overlapped=Mir-SHADINGB3923W9325, Surface Class=[Detached Shading:Building]
   *************
   ** Warning ** Too many figures [>=50000] in a shadow overlap
   **   ~~~   ** Overlapping figure=SHADINGB398W3427, Surface Class=[Detached Shading:Building]
   **   ~~~   **   This error occurred 1 times.
   **   ~~~   ** Figure being Overlapped=Mir-SHADINGB3923W9370, Surface Class=[Detached Shading:Building]
   *************
   ** Warning ** Too many figures [>=50000] in a shadow overlap
   **   ~~~   ** Overlapping figure=Mir-SHADINGB797W5716, Surface Class=[Detached Shading:Building]
   **   ~~~   **   This error occurred 1 times.
   **   ~~~   ** Figure being Overlapped=SHADINGB398W2981, Surface Class=[Detached Shading:Building]
   *************
   ** Warning ** Too many figures [>=50000] in a shadow overlap
   **   ~~~   ** Overlapping figure=Mir-SHADINGB797W783, Surface Class=[Detached Shading:Building]
   **   ~~~   **   This error occurred 1 times.
   **   ~~~   ** Figure being Overlapped=Mir-SHADINGB398W3453, Surface Class=[Detached Shading:Building]
   *************
   ** Warning ** Too many figures [>=50000] in a shadow overlap
   **   ~~~   ** Overlapping figure=SHADINGB398W3012, Surface Class=[Detached Shading:Building]
   **   ~~~   **   This error occurred 1 times.
   **   ~~~   ** Figure being Overlapped=SHADINGB3923W9414, Surface Class=[Detached Shading:Building]
   *************
   ** Warning ** Too many figures [>=50000] in a shadow overlap
   **   ~~~   ** Overlapping figure=Mir-SHADINGB398W3050, Surface Class=[Detached Shading:Building]
   **   ~~~   **   This error occurred 1 times.
   **   ~~~   ** Figure being Overlapped=SHADINGB3923W9476, Surface Class=[Detached Shading:Building]
   *************
   ** Warning ** Too many figures [>=50000] in a shadow overlap
   **   ~~~   ** Overlapping figure=SHADINGB398W3526, Surface Class=[Detached Shading:Building]
   **   ~~~   **   This error occurred 1 times.
   **   ~~~   ** Figure being Overlapped=Mir-SHADINGB3923W9517, Surface Class=[Detached Shading:Building]
   *************
   ** Warning ** Too many figures [>=50000] in a shadow overlap
   **   ~~~   ** Overlapping figure=SHADINGB398W3307, Surface Class=[Detached Shading:Building]
   **   ~~~   **   This error occurred 2 times.
   **   ~~~   ** Figure being Overlapped=WALL11422, Surface Class=[Wall]
   **   ~~~   ** Figure being Overlapped=Mir-SHADINGB3923R3669, Surface Class=[Detached Shading:Building]
   *************
   ** Warning ** Too many figures [>=50000] in a shadow overlap
   **   ~~~   ** Overlapping figure=Mir-SHADINGB398W3307, Surface Class=[Detached Shading:Building]
   **   ~~~   **   This error occurred 1 times.
   **   ~~~   ** Figure being Overlapped=Mir-SHADINGB3923R3580, Surface Class=[Detached Shading:Building]
   *************
   ** Warning ** Too many figures [>=50000] in a shadow overlap
   **   ~~~   ** Overlapping figure=Mir-SHADINGB398W3574, Surface Class=[Detached Shading:Building]
   **   ~~~   **   This error occurred 1 times.
   **   ~~~   ** Figure being Overlapped=SHADINGB3923W9476, Surface Class=[Detached Shading:Building]
   *************
   ** Warning ** Too many figures [>=50000] in a shadow overlap
   **   ~~~   ** Overlapping figure=SHADINGB398W3018, Surface Class=[Detached Shading:Building]
   **   ~~~   **   This error occurred 1 times.
   **   ~~~   ** Figure being Overlapped=Mir-SHADINGB3923W9517, Surface Class=[Detached Shading:Building]
   *************
   ** Warning ** Too many figures [>=50000] in a shadow overlap
   **   ~~~   ** Overlapping figure=SHADINGB398W3198, Surface Class=[Detached Shading:Building]
   **   ~~~   **   This error occurred 1 times.
   **   ~~~   ** Figure being Overlapped=WALL11424, Surface Class=[Wall]
   *************
   ** Warning ** Too many figures [>=50000] in a shadow overlap
   **   ~~~   ** Overlapping figure=Mir-SHADINGB398W3198, Surface Class=[Detached Shading:Building]
   **   ~~~   **   This error occurred 1 times.
   **   ~~~   ** Figure being Overlapped=WALL11436, Surface Class=[Wall]
   *************
   ** Warning ** Too many figures [>=50000] in a shadow overlap
   **   ~~~   ** Overlapping figure=SHADINGB838W5892, Surface Class=[Detached Shading:Building]
   **   ~~~   **   This error occurred 1 times.
   **   ~~~   ** Figure being Overlapped=Mir-SHADINGB398R292, Surface Class=[Detached Shading:Building]
   *************
   **   ~~~   **   The too many figures errors occurred 190 times (total).
   *************
   ************* EnergyPlus Warmup Error Summary. During Warmup: 0 Warning; 0 Severe Errors.
   ************* EnergyPlus Sizing Error Summary. During Sizing: 6 Warning; 0 Severe Errors.
   ************* EnergyPlus Completed Successfully-- 279 Warning; 8 Severe Errors; Elapsed Time=15hr 49min 23.76sec
