Program Version,EnergyPlus, Version 8.4.0-ad2a710397, YMD=2016.01.26 15:13,IDD_Version 8.2.0
   ** Warning ** Version: in IDF="8.2" not the same as expected="8.4"
   ** Warning ** Timestep: Requested number (1) is less than the suggested minimum of 4.
   **   ~~~   ** Please see entry for Timestep in Input/Output Reference for discussion of considerations.
   ** Warning ** Requested Object not found in Definitions: Site:GroundDomain:Slab
   ** Warning ** Requested Object not found in Definitions: Site:GroundDomain:Basement
   ** Warning ** Requested Object not found in Definitions: FaultModel:ThermostatOffset
   ** Warning ** Requested Object not found in Definitions: FaultModel:HumidistatOffset
   ** Warning ** Requested Object not found in Definitions: FaultModel:Fouling:AirFilter
   ** Warning ** Requested Object not found in Definitions: FaultModel:ThermostatOffset
   ** Warning ** Requested Object not found in Definitions: FaultModel:HumidistatOffset
   ** Warning ** Requested Object not found in Definitions: FaultModel:Fouling:AirFilter
   ** Warning ** CheckConvexity: Surface="SHADINGB3923W9619", Collinear points have been removed.
   ** Warning ** CheckConvexity: Surface="SHADINGB3923W9827", Collinear points have been removed.
   ** Warning ** CheckConvexity: Surface="SHADINGB3923W9572", Collinear points have been removed.
   ** Warning ** CheckConvexity: Surface="SHADINGB398R371", Collinear points have been removed.
   ** Warning ** CheckConvexity: Surface="SHADINGB3923R3580", Collinear points have been removed.
   ** Warning ** CheckConvexity: Surface="SHADINGB3923R3902", Collinear points have been removed.
   ** Warning ** CheckConvexity: Surface="SHADINGB3923R3900", Collinear points have been removed.
   ** Warning ** CheckConvexity: Surface="SHADINGB3923R3914", Collinear points have been removed.
   ** Warning ** CheckConvexity: Surface="SHADINGB3923R3872", Collinear points have been removed.
   ** Warning ** CheckConvexity: Surface="SHADINGB3923R3880", Collinear points have been removed.
   ** Warning ** CheckConvexity: Surface="SHADINGB3923R3857", Collinear points have been removed.
   ** Warning ** CheckConvexity: Surface="SHADINGB3923R3722", Collinear points have been removed.
   ** Warning ** GetHTSurfaceData: Surfaces with interface to Ground found but no "Ground Temperatures" were input.
   **   ~~~   ** Found first in surface=FLOOR3563
   **   ~~~   ** Defaults, constant throughout the year of (18.0) will be used.
   ** Warning ** GetSurfaceData: There are 44 coincident/collinear vertices; These have been deleted unless the deletion would bring the number of surface sides < 3.
   **   ~~~   ** For explicit details on each problem surface, use Output:Diagnostics,DisplayExtraWarnings;
   ** Warning ** ProcessSurfaceVertices: Possible non-planar surface:"SHADINGB3923W9290", Max "out of line"=8.45091E-004 at Vertex # 1
   ** Warning ** ProcessSurfaceVertices: Possible non-planar surface:"SHADINGB3923W9295", Max "out of line"=8.45082E-004 at Vertex # 4
   ** Warning ** ProcessSurfaceVertices: Possible non-planar surface:"SHADINGB3923W9296", Max "out of line"=8.45091E-004 at Vertex # 1
   ** Warning ** ProcessSurfaceVertices: Possible non-planar surface:"SHADINGB3923W9293", Max "out of line"=8.45089E-004 at Vertex # 3
   ** Warning ** ProcessSurfaceVertices: Possible non-planar surface:"SHADINGB3923W9294", Max "out of line"=8.45085E-004 at Vertex # 1
   ** Warning ** ProcessSurfaceVertices: Possible non-planar surface:"SHADINGB3923W9291", Max "out of line"=7.06793E-004 at Vertex # 3
   ** Warning ** ProcessSurfaceVertices: Possible non-planar surface:"SHADINGB3923W9292", Max "out of line"=8.45087E-004 at Vertex # 1
   ** Warning ** ProcessSurfaceVertices: Possible non-planar surface:"SHADINGB3923R3902", Max "out of line"=2.62898E-004 at Vertex # 2
   ** Warning ** ProcessSurfaceVertices: Possible non-planar surface:"SHADINGB3923R3880", Max "out of line"=3.81232E-004 at Vertex # 4
   ** Warning ** ProcessSurfaceVertices: Possible non-planar surface:"SHADINGB3923R3857", Max "out of line"=2.23862E-003 at Vertex # 9
   ** Severe  ** GetObjectDefMaxArgs: Did not find object="ElectricEquipment:ITE:AirCooled" in list of objects.
   ** Warning ** Requested Object not found in Definitions: ElectricEquipment:ITE:AirCooled
   ** Severe  ** GetObjectDefMaxArgs: Did not find object="AirflowNetwork:OccupantVentilationControl" in list of objects.
   ** Severe  ** GetObjectDefMaxArgs: Did not find object="AirflowNetwork:IntraZone:Node" in list of objects.
   ** Severe  ** GetObjectDefMaxArgs: Did not find object="AirflowNetwork:IntraZone:Linkage" in list of objects.
   ** Warning ** Requested Object not found in Definitions: AirflowNetwork:OccupantVentilationControl
   ** Warning ** Requested Object not found in Definitions: SetpointManager:ReturnTemperature:ChilledWater
   ** Severe  ** GetObjectDefMaxArgs: Did not find object="SetpointManager:ReturnTemperature:ChilledWater" in list of objects.
   ** Warning ** Requested Object not found in Definitions: SetpointManager:ReturnTemperature:HotWater
   ** Severe  ** GetObjectDefMaxArgs: Did not find object="SetpointManager:ReturnTemperature:HotWater" in list of objects.
   ** Severe  ** GetObjectDefMaxArgs: Did not find object="SwimmingPool:Indoor" in list of objects.
   ** Warning ** Requested Object not found in Definitions: SwimmingPool:Indoor
   ** Warning ** GetPurchasedAir: ZoneHVAC:IdealLoadsAirSystem="ZONE11466ZONEHVAC:IDEALLOADSAIRSYSTEM blank field
   **   ~~~   ** Outdoor Air Inlet Node Name is blank, but there is outdoor air requested for this system.
   **   ~~~   ** Creating node name =ZONE11466ZONEHVAC:IDEALLOADSAIRSYSTEM OUTDOOR AIR INLET NODE
   ** Warning ** GetPurchasedAir: ZoneHVAC:IdealLoadsAirSystem="ZONE11466ZONEHVAC:IDEALLOADSAIRSYSTEM missing data
   **   ~~~   ** ZONE11466ZONEHVAC:IDEALLOADSAIRSYSTEM OUTDOOR AIR INLET NODE does not appear in an OutdoorAir:NodeList or as an OutdoorAir:Node.
   **   ~~~   ** Adding OutdoorAir:Node=ZONE11466ZONEHVAC:IDEALLOADSAIRSYSTEM OUTDOOR AIR INLET NODE
   ** Warning ** Requested Object not found in Definitions: RoomAirSettings:AirflowNetwork
   ** Warning ** Requested Object not found in Definitions: DemandManager:Ventilation
   ************* Testing Individual Branch Integrity
   ************* All Branches passed integrity testing
   ************* Testing Individual Supply Air Path Integrity
   ************* All Supply Air Paths passed integrity testing
   ************* Testing Individual Return Air Path Integrity
   ************* All Return Air Paths passed integrity testing
   ************* No node connection errors were found.
   ************* Beginning Simulation
   ** Warning ** Requested Object not found in Definitions: Output:Table:Annual
   ** Severe  ** GetObjectDefMaxArgs: Did not find object="Output:Table:Annual" in list of objects.
   ************* Simulation Error Summary *************
   ************* There are 2 unused schedules in input.
   ************* Use Output:Diagnostics,DisplayUnusedSchedules; to see them.
   *************
   ************* ===== Recurring Surface Error Summary =====
   ************* The following surface error messages occurred.
   *************
   ************* Too many figures [>=50000] in shadow overlap errors occurring...
   ************* These occur throughout the year and may occur several times for the same surfaces. You may be able to reduce them by adding OutputDiagnostics,DoNotMirrorDetachedShading;
   *************
   ** Warning ** Too many figures [>=50000] in a shadow overlap
   **   ~~~   ** Overlapping figure=SHADINGB797W5664, Surface Class=[Detached Shading:Building]
   **   ~~~   **   This error occurred 5 times.
   **   ~~~   ** Figure being Overlapped=Mir-SHADINGB398W3373, Surface Class=[Detached Shading:Building]
   **   ~~~   ** Figure being Overlapped=SHADINGB3923W9341, Surface Class=[Detached Shading:Building]
   **   ~~~   ** Figure being Overlapped=Mir-SHADINGB3923R3788, Surface Class=[Detached Shading:Building]
   **   ~~~   ** Figure being Overlapped=SHADINGB3923W9474, Surface Class=[Detached Shading:Building]
   *************
   ** Warning ** Too many figures [>=50000] in a shadow overlap
   **   ~~~   ** Overlapping figure=Mir-SHADINGB797W5664, Surface Class=[Detached Shading:Building]
   **   ~~~   **   This error occurred 3 times.
   **   ~~~   ** Figure being Overlapped=Mir-SHADINGB398W3375, Surface Class=[Detached Shading:Building]
   **   ~~~   ** Figure being Overlapped=SHADINGB3923W9964, Surface Class=[Detached Shading:Building]
   **   ~~~   ** Figure being Overlapped=SHADINGB3923W9476, Surface Class=[Detached Shading:Building]
   *************
   ** Warning ** Too many figures [>=50000] in a shadow overlap
   **   ~~~   ** Overlapping figure=Mir-SHADINGB797W5746, Surface Class=[Detached Shading:Building]
   **   ~~~   **   This error occurred 1 times.
   **   ~~~   ** Figure being Overlapped=SHADINGB398W3274, Surface Class=[Detached Shading:Building]
   *************
   ** Warning ** Too many figures [>=50000] in a shadow overlap
   **   ~~~   ** Overlapping figure=Mir-SHADINGB797W5437, Surface Class=[Detached Shading:Building]
   **   ~~~   **   This error occurred 4 times.
   **   ~~~   ** Figure being Overlapped=SHADINGB398W3272, Surface Class=[Detached Shading:Building]
   **   ~~~   ** Figure being Overlapped=Mir-SHADINGB3923W9476, Surface Class=[Detached Shading:Building]
   **   ~~~   ** Figure being Overlapped=SHADINGB3923W9857, Surface Class=[Detached Shading:Building]
   **   ~~~   ** Figure being Overlapped=WALL3561, Surface Class=[Wall]
   *************
   ** Warning ** Too many figures [>=50000] in a shadow overlap
   **   ~~~   ** Overlapping figure=Mir-SHADINGB838W5816, Surface Class=[Detached Shading:Building]
   **   ~~~   **   This error occurred 2 times.
   **   ~~~   ** Figure being Overlapped=SHADINGB3923W9490, Surface Class=[Detached Shading:Building]
   **   ~~~   ** Figure being Overlapped=SHADINGB3923W9557, Surface Class=[Detached Shading:Building]
   *************
   ** Warning ** Too many figures [>=50000] in a shadow overlap
   **   ~~~   ** Overlapping figure=SHADINGB838W5817, Surface Class=[Detached Shading:Building]
   **   ~~~   **   This error occurred 2 times.
   **   ~~~   ** Figure being Overlapped=SHADINGB3923W9491, Surface Class=[Detached Shading:Building]
   **   ~~~   ** Figure being Overlapped=SHADINGB3923W9558, Surface Class=[Detached Shading:Building]
   *************
   ** Warning ** Too many figures [>=50000] in a shadow overlap
   **   ~~~   ** Overlapping figure=SHADINGB838W5898, Surface Class=[Detached Shading:Building]
   **   ~~~   **   This error occurred 1 times.
   **   ~~~   ** Figure being Overlapped=SHADINGB3923W9434, Surface Class=[Detached Shading:Building]
   *************
   ** Warning ** Too many figures [>=50000] in a shadow overlap
   **   ~~~   ** Overlapping figure=Mir-SHADINGB838W5898, Surface Class=[Detached Shading:Building]
   **   ~~~   **   This error occurred 1 times.
   **   ~~~   ** Figure being Overlapped=SHADINGB3923W9433, Surface Class=[Detached Shading:Building]
   *************
   ** Warning ** Too many figures [>=50000] in a shadow overlap
   **   ~~~   ** Overlapping figure=SHADINGB797W5730, Surface Class=[Detached Shading:Building]
   **   ~~~   **   This error occurred 6 times.
   **   ~~~   ** Figure being Overlapped=Mir-SHADINGB3923W9474, Surface Class=[Detached Shading:Building]
   **   ~~~   ** Figure being Overlapped=Mir-SHADINGB398W3298, Surface Class=[Detached Shading:Building]
   **   ~~~   ** Figure being Overlapped=Mir-SHADINGB398W3309, Surface Class=[Detached Shading:Building]
   **   ~~~   ** Figure being Overlapped=Mir-SHADINGB3923W9547, Surface Class=[Detached Shading:Building]
   **   ~~~   ** Figure being Overlapped=SHADINGB398W3356, Surface Class=[Detached Shading:Building]
   *************
   ** Warning ** Too many figures [>=50000] in a shadow overlap
   **   ~~~   ** Overlapping figure=Mir-SHADINGB797W5730, Surface Class=[Detached Shading:Building]
   **   ~~~   **   This error occurred 7 times.
   **   ~~~   ** Figure being Overlapped=Mir-SHADINGB3923W9473, Surface Class=[Detached Shading:Building]
   **   ~~~   ** Figure being Overlapped=SHADINGB398W3198, Surface Class=[Detached Shading:Building]
   **   ~~~   ** Figure being Overlapped=Mir-SHADINGB398W232, Surface Class=[Detached Shading:Building]
   **   ~~~   ** Figure being Overlapped=SHADINGB398W3204, Surface Class=[Detached Shading:Building]
   **   ~~~   ** Figure being Overlapped=Mir-SHADINGB3923W9548, Surface Class=[Detached Shading:Building]
   **   ~~~   ** Figure being Overlapped=Mir-SHADINGB3923W9384, Surface Class=[Detached Shading:Building]
   **   ~~~   ** Figure being Overlapped=SHADINGB3923W9475, Surface Class=[Detached Shading:Building]
   *************
   ** Warning ** Too many figures [>=50000] in a shadow overlap
   **   ~~~   ** Overlapping figure=Mir-SHADINGB797W5729, Surface Class=[Detached Shading:Building]
   **   ~~~   **   This error occurred 3 times.
   **   ~~~   ** Figure being Overlapped=Mir-SHADINGB3923W9474, Surface Class=[Detached Shading:Building]
   **   ~~~   ** Figure being Overlapped=SHADINGB398W3384, Surface Class=[Detached Shading:Building]
   **   ~~~   ** Figure being Overlapped=Mir-SHADINGB3923W9214, Surface Class=[Detached Shading:Building]
   *************
   ** Warning ** Too many figures [>=50000] in a shadow overlap
   **   ~~~   ** Overlapping figure=SHADINGB797W5453, Surface Class=[Detached Shading:Building]
   **   ~~~   **   This error occurred 2 times.
   **   ~~~   ** Figure being Overlapped=Mir-SHADINGB3923W9473, Surface Class=[Detached Shading:Building]
   **   ~~~   ** Figure being Overlapped=Mir-SHADINGB398W2879, Surface Class=[Detached Shading:Building]
   *************
   ** Warning ** Too many figures [>=50000] in a shadow overlap
   **   ~~~   ** Overlapping figure=SHADINGB797W5745, Surface Class=[Detached Shading:Building]
   **   ~~~   **   This error occurred 2 times.
   **   ~~~   ** Figure being Overlapped=Mir-SHADINGB3923W9475, Surface Class=[Detached Shading:Building]
   **   ~~~   ** Figure being Overlapped=WALL11448, Surface Class=[Wall]
   *************
   ** Warning ** Too many figures [>=50000] in a shadow overlap
   **   ~~~   ** Overlapping figure=SHADINGB797W5435, Surface Class=[Detached Shading:Building]
   **   ~~~   **   This error occurred 2 times.
   **   ~~~   ** Figure being Overlapped=SHADINGB3923W9491, Surface Class=[Detached Shading:Building]
   **   ~~~   ** Figure being Overlapped=SHADINGB3923W9948, Surface Class=[Detached Shading:Building]
   *************
   ** Warning ** Too many figures [>=50000] in a shadow overlap
   **   ~~~   ** Overlapping figure=Mir-SHADINGB797W5435, Surface Class=[Detached Shading:Building]
   **   ~~~   **   This error occurred 1 times.
   **   ~~~   ** Figure being Overlapped=Mir-SHADINGB3923W9474, Surface Class=[Detached Shading:Building]
   *************
   ** Warning ** Too many figures [>=50000] in a shadow overlap
   **   ~~~   ** Overlapping figure=SHADINGB398W3076, Surface Class=[Detached Shading:Building]
   **   ~~~   **   This error occurred 1 times.
   **   ~~~   ** Figure being Overlapped=SHADINGB3923W9520, Surface Class=[Detached Shading:Building]
   *************
   ** Warning ** Too many figures [>=50000] in a shadow overlap
   **   ~~~   ** Overlapping figure=Mir-SHADINGB398W3076, Surface Class=[Detached Shading:Building]
   **   ~~~   **   This error occurred 1 times.
   **   ~~~   ** Figure being Overlapped=SHADINGB3923W9530, Surface Class=[Detached Shading:Building]
   *************
   ** Warning ** Too many figures [>=50000] in a shadow overlap
   **   ~~~   ** Overlapping figure=SHADINGB398W3125, Surface Class=[Detached Shading:Building]
   **   ~~~   **   This error occurred 2 times.
   **   ~~~   ** Figure being Overlapped=SHADINGB3923W9518, Surface Class=[Detached Shading:Building]
   **   ~~~   ** Figure being Overlapped=SHADINGB3923W9556, Surface Class=[Detached Shading:Building]
   *************
   ** Warning ** Too many figures [>=50000] in a shadow overlap
   **   ~~~   ** Overlapping figure=Mir-SHADINGB398W3125, Surface Class=[Detached Shading:Building]
   **   ~~~   **   This error occurred 1 times.
   **   ~~~   ** Figure being Overlapped=SHADINGB3923W9521, Surface Class=[Detached Shading:Building]
   *************
   ** Warning ** Too many figures [>=50000] in a shadow overlap
   **   ~~~   ** Overlapping figure=Mir-SHADINGB3923W9711, Surface Class=[Detached Shading:Building]
   **   ~~~   **   This error occurred 1 times.
   **   ~~~   ** Figure being Overlapped=SHADINGB3923W9522, Surface Class=[Detached Shading:Building]
   *************
   ** Warning ** Too many figures [>=50000] in a shadow overlap
   **   ~~~   ** Overlapping figure=Mir-SHADINGB3923W9669, Surface Class=[Detached Shading:Building]
   **   ~~~   **   This error occurred 1 times.
   **   ~~~   ** Figure being Overlapped=SHADINGB3923W9519, Surface Class=[Detached Shading:Building]
   *************
   ** Warning ** Too many figures [>=50000] in a shadow overlap
   **   ~~~   ** Overlapping figure=Mir-SHADINGB797W5795, Surface Class=[Detached Shading:Building]
   **   ~~~   **   This error occurred 2 times.
   **   ~~~   ** Figure being Overlapped=WALL99114601, Surface Class=[Wall]
   **   ~~~   ** Figure being Overlapped=WALL11425, Surface Class=[Wall]
   *************
   ** Warning ** Too many figures [>=50000] in a shadow overlap
   **   ~~~   ** Overlapping figure=SHADINGB797W5797, Surface Class=[Detached Shading:Building]
   **   ~~~   **   This error occurred 2 times.
   **   ~~~   ** Figure being Overlapped=WALL99114602, Surface Class=[Wall]
   **   ~~~   ** Figure being Overlapped=WALL99114231, Surface Class=[Wall]
   *************
   ** Warning ** Too many figures [>=50000] in a shadow overlap
   **   ~~~   ** Overlapping figure=SHADINGB398W3081, Surface Class=[Detached Shading:Building]
   **   ~~~   **   This error occurred 3 times.
   **   ~~~   ** Figure being Overlapped=Mir-SHADINGB3923W9473, Surface Class=[Detached Shading:Building]
   **   ~~~   ** Figure being Overlapped=Mir-SHADINGB3923R3580, Surface Class=[Detached Shading:Building]
   *************
   ** Warning ** Too many figures [>=50000] in a shadow overlap
   **   ~~~   ** Overlapping figure=Mir-SHADINGB398W3081, Surface Class=[Detached Shading:Building]
   **   ~~~   **   This error occurred 2 times.
   **   ~~~   ** Figure being Overlapped=Mir-SHADINGB3923W9476, Surface Class=[Detached Shading:Building]
   **   ~~~   ** Figure being Overlapped=SHADINGB3923W9547, Surface Class=[Detached Shading:Building]
   *************
   ** Warning ** Too many figures [>=50000] in a shadow overlap
   **   ~~~   ** Overlapping figure=SHADINGB3923W9846, Surface Class=[Detached Shading:Building]
   **   ~~~   **   This error occurred 1 times.
   **   ~~~   ** Figure being Overlapped=WALL99114601, Surface Class=[Wall]
   *************
   ** Warning ** Too many figures [>=50000] in a shadow overlap
   **   ~~~   ** Overlapping figure=Mir-SHADINGB3923W9846, Surface Class=[Detached Shading:Building]
   **   ~~~   **   This error occurred 1 times.
   **   ~~~   ** Figure being Overlapped=WALL99114602, Surface Class=[Wall]
   *************
   ** Warning ** Too many figures [>=50000] in a shadow overlap
   **   ~~~   ** Overlapping figure=SHADINGB398W3142, Surface Class=[Detached Shading:Building]
   **   ~~~   **   This error occurred 1 times.
   **   ~~~   ** Figure being Overlapped=Mir-SHADINGB3923W9477, Surface Class=[Detached Shading:Building]
   *************
   ** Warning ** Too many figures [>=50000] in a shadow overlap
   **   ~~~   ** Overlapping figure=Mir-SHADINGB398W3142, Surface Class=[Detached Shading:Building]
   **   ~~~   **   This error occurred 1 times.
   **   ~~~   ** Figure being Overlapped=SHADINGB3923W9517, Surface Class=[Detached Shading:Building]
   *************
   ** Warning ** Too many figures [>=50000] in a shadow overlap
   **   ~~~   ** Overlapping figure=Mir-SHADINGB797W5734, Surface Class=[Detached Shading:Building]
   **   ~~~   **   This error occurred 6 times.
   **   ~~~   ** Figure being Overlapped=SHADINGB3923W9519, Surface Class=[Detached Shading:Building]
   **   ~~~   ** Figure being Overlapped=SHADINGB3923W9403, Surface Class=[Detached Shading:Building]
   **   ~~~   ** Figure being Overlapped=SHADINGB3923W9475, Surface Class=[Detached Shading:Building]
   **   ~~~   ** Figure being Overlapped=SHADINGB3923W3659, Surface Class=[Detached Shading:Building]
   *************
   ** Warning ** Too many figures [>=50000] in a shadow overlap
   **   ~~~   ** Overlapping figure=SHADINGB797W5731, Surface Class=[Detached Shading:Building]
   **   ~~~   **   This error occurred 2 times.
   **   ~~~   ** Figure being Overlapped=SHADINGB3923W9520, Surface Class=[Detached Shading:Building]
   **   ~~~   ** Figure being Overlapped=Mir-SHADINGB398W2943, Surface Class=[Detached Shading:Building]
   *************
   ** Warning ** Too many figures [>=50000] in a shadow overlap
   **   ~~~   ** Overlapping figure=SHADINGB3545W11973, Surface Class=[Detached Shading:Building]
   **   ~~~   **   This error occurred 2 times.
   **   ~~~   ** Figure being Overlapped=Mir-SHADINGB3923W9478, Surface Class=[Detached Shading:Building]
   **   ~~~   ** Figure being Overlapped=SHADINGB3923W9477, Surface Class=[Detached Shading:Building]
   *************
   ** Warning ** Too many figures [>=50000] in a shadow overlap
   **   ~~~   ** Overlapping figure=Mir-SHADINGB3545W11973, Surface Class=[Detached Shading:Building]
   **   ~~~   **   This error occurred 2 times.
   **   ~~~   ** Figure being Overlapped=Mir-SHADINGB3923W9477, Surface Class=[Detached Shading:Building]
   **   ~~~   ** Figure being Overlapped=SHADINGB3923W9451, Surface Class=[Detached Shading:Building]
   *************
   ** Warning ** Too many figures [>=50000] in a shadow overlap
   **   ~~~   ** Overlapping figure=SHADINGB797W5648, Surface Class=[Detached Shading:Building]
   **   ~~~   **   This error occurred 1 times.
   **   ~~~   ** Figure being Overlapped=Mir-SHADINGB3923W9478, Surface Class=[Detached Shading:Building]
   *************
   ** Warning ** Too many figures [>=50000] in a shadow overlap
   **   ~~~   ** Overlapping figure=Mir-SHADINGB797W5648, Surface Class=[Detached Shading:Building]
   **   ~~~   **   This error occurred 1 times.
   **   ~~~   ** Figure being Overlapped=Mir-SHADINGB3923W9477, Surface Class=[Detached Shading:Building]
   *************
   ** Warning ** Too many figures [>=50000] in a shadow overlap
   **   ~~~   ** Overlapping figure=SHADINGB797W5549, Surface Class=[Detached Shading:Building]
   **   ~~~   **   This error occurred 7 times.
   **   ~~~   ** Figure being Overlapped=SHADINGB3923W9380, Surface Class=[Detached Shading:Building]
   **   ~~~   ** Figure being Overlapped=SHADINGB3923W9402, Surface Class=[Detached Shading:Building]
   **   ~~~   ** Figure being Overlapped=WALL11448, Surface Class=[Wall]
   **   ~~~   ** Figure being Overlapped=SHADINGB3923W9322, Surface Class=[Detached Shading:Building]
   **   ~~~   ** Figure being Overlapped=Mir-SHADINGB398W3195, Surface Class=[Detached Shading:Building]
   **   ~~~   ** Figure being Overlapped=SHADINGB398W3051, Surface Class=[Detached Shading:Building]
   *************
   ** Warning ** Too many figures [>=50000] in a shadow overlap
   **   ~~~   ** Overlapping figure=Mir-SHADINGB797W5549, Surface Class=[Detached Shading:Building]
   **   ~~~   **   This error occurred 6 times.
   **   ~~~   ** Figure being Overlapped=SHADINGB3923W9383, Surface Class=[Detached Shading:Building]
   **   ~~~   ** Figure being Overlapped=SHADINGB3923W9401, Surface Class=[Detached Shading:Building]
   **   ~~~   ** Figure being Overlapped=SHADINGB3923W9452, Surface Class=[Detached Shading:Building]
   **   ~~~   ** Figure being Overlapped=SHADINGB398W3012, Surface Class=[Detached Shading:Building]
   **   ~~~   ** Figure being Overlapped=Mir-SHADINGB398W3196, Surface Class=[Detached Shading:Building]
   *************
   ** Warning ** Too many figures [>=50000] in a shadow overlap
   **   ~~~   ** Overlapping figure=SHADINGB797W5402, Surface Class=[Detached Shading:Building]
   **   ~~~   **   This error occurred 1 times.
   **   ~~~   ** Figure being Overlapped=Mir-SHADINGB398R313, Surface Class=[Detached Shading:Building]
   *************
   ** Warning ** Too many figures [>=50000] in a shadow overlap
   **   ~~~   ** Overlapping figure=Mir-SHADINGB797W5402, Surface Class=[Detached Shading:Building]
   **   ~~~   **   This error occurred 1 times.
   **   ~~~   ** Figure being Overlapped=Mir-SHADINGB398R292, Surface Class=[Detached Shading:Building]
   *************
   ** Warning ** Too many figures [>=50000] in a shadow overlap
   **   ~~~   ** Overlapping figure=SHADINGB838W5929, Surface Class=[Detached Shading:Building]
   **   ~~~   **   This error occurred 3 times.
   **   ~~~   ** Figure being Overlapped=Mir-SHADINGB3923W9448, Surface Class=[Detached Shading:Building]
   **   ~~~   ** Figure being Overlapped=WALL11448, Surface Class=[Wall]
   *************
   ** Warning ** Too many figures [>=50000] in a shadow overlap
   **   ~~~   ** Overlapping figure=SHADINGB838W5930, Surface Class=[Detached Shading:Building]
   **   ~~~   **   This error occurred 2 times.
   **   ~~~   ** Figure being Overlapped=Mir-SHADINGB3923W9446, Surface Class=[Detached Shading:Building]
   *************
   ** Warning ** Too many figures [>=50000] in a shadow overlap
   **   ~~~   ** Overlapping figure=Mir-SHADINGB838W5875, Surface Class=[Detached Shading:Building]
   **   ~~~   **   This error occurred 1 times.
   **   ~~~   ** Figure being Overlapped=SHADINGB3923W9546, Surface Class=[Detached Shading:Building]
   *************
   ** Warning ** Too many figures [>=50000] in a shadow overlap
   **   ~~~   ** Overlapping figure=SHADINGB838W5876, Surface Class=[Detached Shading:Building]
   **   ~~~   **   This error occurred 2 times.
   **   ~~~   ** Figure being Overlapped=SHADINGB3923W9545, Surface Class=[Detached Shading:Building]
   **   ~~~   ** Figure being Overlapped=Mir-SHADINGB3923W9522, Surface Class=[Detached Shading:Building]
   *************
   ** Warning ** Too many figures [>=50000] in a shadow overlap
   **   ~~~   ** Overlapping figure=Mir-SHADINGB838W5817, Surface Class=[Detached Shading:Building]
   **   ~~~   **   This error occurred 2 times.
   **   ~~~   ** Figure being Overlapped=SHADINGB3923W9547, Surface Class=[Detached Shading:Building]
   **   ~~~   ** Figure being Overlapped=Mir-SHADINGB3566R3565, Surface Class=[Detached Shading:Building]
   *************
   ** Warning ** Too many figures [>=50000] in a shadow overlap
   **   ~~~   ** Overlapping figure=SHADINGB838W5818, Surface Class=[Detached Shading:Building]
   **   ~~~   **   This error occurred 3 times.
   **   ~~~   ** Figure being Overlapped=SHADINGB3923W9548, Surface Class=[Detached Shading:Building]
   **   ~~~   ** Figure being Overlapped=Mir-SHADINGB3566R3549, Surface Class=[Detached Shading:Building]
   **   ~~~   ** Figure being Overlapped=Mir-SHADINGB3923W9520, Surface Class=[Detached Shading:Building]
   *************
   ** Warning ** Too many figures [>=50000] in a shadow overlap
   **   ~~~   ** Overlapping figure=Mir-SHADINGB797W5536, Surface Class=[Detached Shading:Building]
   **   ~~~   **   This error occurred 3 times.
   **   ~~~   ** Figure being Overlapped=Mir-SHADINGB3923W9336, Surface Class=[Detached Shading:Building]
   **   ~~~   ** Figure being Overlapped=Mir-SHADINGB797R696, Surface Class=[Detached Shading:Building]
   *************
   ** Warning ** Too many figures [>=50000] in a shadow overlap
   **   ~~~   ** Overlapping figure=SHADINGB797W5535, Surface Class=[Detached Shading:Building]
   **   ~~~   **   This error occurred 2 times.
   **   ~~~   ** Figure being Overlapped=Mir-SHADINGB3923W9337, Surface Class=[Detached Shading:Building]
   **   ~~~   ** Figure being Overlapped=Mir-SHADINGB3923W9548, Surface Class=[Detached Shading:Building]
   *************
   ** Warning ** Too many figures [>=50000] in a shadow overlap
   **   ~~~   ** Overlapping figure=Mir-SHADINGB797W5695, Surface Class=[Detached Shading:Building]
   **   ~~~   **   This error occurred 2 times.
   **   ~~~   ** Figure being Overlapped=WALL11447, Surface Class=[Wall]
   **   ~~~   ** Figure being Overlapped=SHADINGB3923W9998, Surface Class=[Detached Shading:Building]
   *************
   ** Warning ** Too many figures [>=50000] in a shadow overlap
   **   ~~~   ** Overlapping figure=SHADINGB797W5437, Surface Class=[Detached Shading:Building]
   **   ~~~   **   This error occurred 1 times.
   **   ~~~   ** Figure being Overlapped=SHADINGB3923W9856, Surface Class=[Detached Shading:Building]
   *************
   ** Warning ** Too many figures [>=50000] in a shadow overlap
   **   ~~~   ** Overlapping figure=Mir-SHADINGB838W5928, Surface Class=[Detached Shading:Building]
   **   ~~~   **   This error occurred 1 times.
   **   ~~~   ** Figure being Overlapped=WALL3561, Surface Class=[Wall]
   *************
   ** Warning ** Too many figures [>=50000] in a shadow overlap
   **   ~~~   ** Overlapping figure=SHADINGB797W5423, Surface Class=[Detached Shading:Building]
   **   ~~~   **   This error occurred 5 times.
   **   ~~~   ** Figure being Overlapped=WALL3561, Surface Class=[Wall]
   **   ~~~   ** Figure being Overlapped=SHADINGB3923W9476, Surface Class=[Detached Shading:Building]
   **   ~~~   ** Figure being Overlapped=SHADINGB3923W9324, Surface Class=[Detached Shading:Building]
   **   ~~~   ** Figure being Overlapped=Mir-SHADINGB3923W9518, Surface Class=[Detached Shading:Building]
   *************
   ** Warning ** Too many figures [>=50000] in a shadow overlap
   **   ~~~   ** Overlapping figure=Mir-SHADINGB797W5423, Surface Class=[Detached Shading:Building]
   **   ~~~   **   This error occurred 4 times.
   **   ~~~   ** Figure being Overlapped=WALL11448, Surface Class=[Wall]
   **   ~~~   ** Figure being Overlapped=SHADINGB3923W9325, Surface Class=[Detached Shading:Building]
   **   ~~~   ** Figure being Overlapped=Mir-SHADINGB3923W9522, Surface Class=[Detached Shading:Building]
   *************
   ** Warning ** Too many figures [>=50000] in a shadow overlap
   **   ~~~   ** Overlapping figure=SHADINGB838W5879, Surface Class=[Detached Shading:Building]
   **   ~~~   **   This error occurred 1 times.
   **   ~~~   ** Figure being Overlapped=Mir-SHADINGB3566R3565, Surface Class=[Detached Shading:Building]
   *************
   ** Warning ** Too many figures [>=50000] in a shadow overlap
   **   ~~~   ** Overlapping figure=Mir-SHADINGB838W5879, Surface Class=[Detached Shading:Building]
   **   ~~~   **   This error occurred 2 times.
   **   ~~~   ** Figure being Overlapped=Mir-SHADINGB3566R3549, Surface Class=[Detached Shading:Building]
   **   ~~~   ** Figure being Overlapped=Mir-SHADINGB3923R3768, Surface Class=[Detached Shading:Building]
   *************
   ** Warning ** Too many figures [>=50000] in a shadow overlap
   **   ~~~   ** Overlapping figure=Mir-SHADINGB838W5912, Surface Class=[Detached Shading:Building]
   **   ~~~   **   This error occurred 1 times.
   **   ~~~   ** Figure being Overlapped=WALL11444, Surface Class=[Wall]
   *************
   ** Warning ** Too many figures [>=50000] in a shadow overlap
   **   ~~~   ** Overlapping figure=SHADINGB838W5911, Surface Class=[Detached Shading:Building]
   **   ~~~   **   This error occurred 2 times.
   **   ~~~   ** Figure being Overlapped=WALL3561, Surface Class=[Wall]
   **   ~~~   ** Figure being Overlapped=SHADINGB3923W9366, Surface Class=[Detached Shading:Building]
   *************
   ** Warning ** Too many figures [>=50000] in a shadow overlap
   **   ~~~   ** Overlapping figure=Mir-SHADINGB797W5680, Surface Class=[Detached Shading:Building]
   **   ~~~   **   This error occurred 1 times.
   **   ~~~   ** Figure being Overlapped=SHADINGB3923W9856, Surface Class=[Detached Shading:Building]
   *************
   ** Warning ** Too many figures [>=50000] in a shadow overlap
   **   ~~~   ** Overlapping figure=SHADINGB797W5679, Surface Class=[Detached Shading:Building]
   **   ~~~   **   This error occurred 1 times.
   **   ~~~   ** Figure being Overlapped=SHADINGB3923W9857, Surface Class=[Detached Shading:Building]
   *************
   ** Warning ** Too many figures [>=50000] in a shadow overlap
   **   ~~~   ** Overlapping figure=SHADINGB3545W12025, Surface Class=[Detached Shading:Building]
   **   ~~~   **   This error occurred 2 times.
   **   ~~~   ** Figure being Overlapped=WALL3561, Surface Class=[Wall]
   *************
   ** Warning ** Too many figures [>=50000] in a shadow overlap
   **   ~~~   ** Overlapping figure=Mir-SHADINGB3545W12025, Surface Class=[Detached Shading:Building]
   **   ~~~   **   This error occurred 2 times.
   **   ~~~   ** Figure being Overlapped=WALL11448, Surface Class=[Wall]
   *************
   ** Warning ** Too many figures [>=50000] in a shadow overlap
   **   ~~~   ** Overlapping figure=Mir-SHADINGB797W5351, Surface Class=[Detached Shading:Building]
   **   ~~~   **   This error occurred 3 times.
   **   ~~~   ** Figure being Overlapped=Mir-SHADINGB398W3309, Surface Class=[Detached Shading:Building]
   **   ~~~   ** Figure being Overlapped=SHADINGB3923W9473, Surface Class=[Detached Shading:Building]
   **   ~~~   ** Figure being Overlapped=SHADINGB398W3556, Surface Class=[Detached Shading:Building]
   *************
   ** Warning ** Too many figures [>=50000] in a shadow overlap
   **   ~~~   ** Overlapping figure=SHADINGB797W5588, Surface Class=[Detached Shading:Building]
   **   ~~~   **   This error occurred 1 times.
   **   ~~~   ** Figure being Overlapped=SHADINGB398W3204, Surface Class=[Detached Shading:Building]
   *************
   ** Warning ** Too many figures [>=50000] in a shadow overlap
   **   ~~~   ** Overlapping figure=SHADINGB797W5553, Surface Class=[Detached Shading:Building]
   **   ~~~   **   This error occurred 2 times.
   **   ~~~   ** Figure being Overlapped=Mir-SHADINGB398W3309, Surface Class=[Detached Shading:Building]
   *************
   ** Warning ** Too many figures [>=50000] in a shadow overlap
   **   ~~~   ** Overlapping figure=Mir-SHADINGB797W5553, Surface Class=[Detached Shading:Building]
   **   ~~~   **   This error occurred 2 times.
   **   ~~~   ** Figure being Overlapped=SHADINGB398W3204, Surface Class=[Detached Shading:Building]
   *************
   ** Warning ** Too many figures [>=50000] in a shadow overlap
   **   ~~~   ** Overlapping figure=Mir-SHADINGB797W5453, Surface Class=[Detached Shading:Building]
   **   ~~~   **   This error occurred 5 times.
   **   ~~~   ** Figure being Overlapped=Mir-SHADINGB398W3296, Surface Class=[Detached Shading:Building]
   **   ~~~   ** Figure being Overlapped=SHADINGB398W223, Surface Class=[Detached Shading:Building]
   **   ~~~   ** Figure being Overlapped=Mir-SHADINGB3923W9383, Surface Class=[Detached Shading:Building]
   **   ~~~   ** Figure being Overlapped=SHADINGB398W3352, Surface Class=[Detached Shading:Building]
   *************
   ** Warning ** Too many figures [>=50000] in a shadow overlap
   **   ~~~   ** Overlapping figure=SHADINGB797W5492, Surface Class=[Detached Shading:Building]
   **   ~~~   **   This error occurred 3 times.
   **   ~~~   ** Figure being Overlapped=SHADINGB398W3204, Surface Class=[Detached Shading:Building]
   **   ~~~   ** Figure being Overlapped=Mir-SHADINGB3923W9489, Surface Class=[Detached Shading:Building]
   *************
   ** Warning ** Too many figures [>=50000] in a shadow overlap
   **   ~~~   ** Overlapping figure=Mir-SHADINGB797W5492, Surface Class=[Detached Shading:Building]
   **   ~~~   **   This error occurred 4 times.
   **   ~~~   ** Figure being Overlapped=SHADINGB398W3198, Surface Class=[Detached Shading:Building]
   **   ~~~   ** Figure being Overlapped=Mir-SHADINGB3923W9490, Surface Class=[Detached Shading:Building]
   **   ~~~   ** Figure being Overlapped=Mir-SHADINGB3923W9546, Surface Class=[Detached Shading:Building]
   *************
   ** Warning ** Too many figures [>=50000] in a shadow overlap
   **   ~~~   ** Overlapping figure=Mir-SHADINGB797W5520, Surface Class=[Detached Shading:Building]
   **   ~~~   **   This error occurred 5 times.
   **   ~~~   ** Figure being Overlapped=SHADINGB398W3204, Surface Class=[Detached Shading:Building]
   **   ~~~   ** Figure being Overlapped=Mir-SHADINGB398W3274, Surface Class=[Detached Shading:Building]
   **   ~~~   ** Figure being Overlapped=Mir-SHADINGB398W253, Surface Class=[Detached Shading:Building]
   **   ~~~   ** Figure being Overlapped=Mir-SHADINGB3923W9546, Surface Class=[Detached Shading:Building]
   *************
   ** Warning ** Too many figures [>=50000] in a shadow overlap
   **   ~~~   ** Overlapping figure=SHADINGB797W5521, Surface Class=[Detached Shading:Building]
   **   ~~~   **   This error occurred 4 times.
   **   ~~~   ** Figure being Overlapped=SHADINGB398W3198, Surface Class=[Detached Shading:Building]
   **   ~~~   ** Figure being Overlapped=Mir-SHADINGB398W3276, Surface Class=[Detached Shading:Building]
   **   ~~~   ** Figure being Overlapped=Mir-SHADINGB3923W9545, Surface Class=[Detached Shading:Building]
   *************
   ** Warning ** Too many figures [>=50000] in a shadow overlap
   **   ~~~   ** Overlapping figure=Mir-SHADINGB797W5700, Surface Class=[Detached Shading:Building]
   **   ~~~   **   This error occurred 2 times.
   **   ~~~   ** Figure being Overlapped=WALL3561, Surface Class=[Wall]
   **   ~~~   ** Figure being Overlapped=Mir-SHADINGB398R240, Surface Class=[Detached Shading:Building]
   *************
   ** Warning ** Too many figures [>=50000] in a shadow overlap
   **   ~~~   ** Overlapping figure=SHADINGB797W5701, Surface Class=[Detached Shading:Building]
   **   ~~~   **   This error occurred 2 times.
   **   ~~~   ** Figure being Overlapped=WALL11448, Surface Class=[Wall]
   **   ~~~   ** Figure being Overlapped=Mir-SHADINGB398R250, Surface Class=[Detached Shading:Building]
   *************
   ** Warning ** Too many figures [>=50000] in a shadow overlap
   **   ~~~   ** Overlapping figure=SHADINGB838W5941, Surface Class=[Detached Shading:Building]
   **   ~~~   **   This error occurred 3 times.
   **   ~~~   ** Figure being Overlapped=WALL11425, Surface Class=[Wall]
   **   ~~~   ** Figure being Overlapped=SHADINGB3923W9450, Surface Class=[Detached Shading:Building]
   *************
   ** Warning ** Too many figures [>=50000] in a shadow overlap
   **   ~~~   ** Overlapping figure=Mir-SHADINGB838W5941, Surface Class=[Detached Shading:Building]
   **   ~~~   **   This error occurred 2 times.
   **   ~~~   ** Figure being Overlapped=WALL99114231, Surface Class=[Wall]
   **   ~~~   ** Figure being Overlapped=SHADINGB3923W9415, Surface Class=[Detached Shading:Building]
   *************
   ** Warning ** Too many figures [>=50000] in a shadow overlap
   **   ~~~   ** Overlapping figure=Mir-SHADINGB838W5861, Surface Class=[Detached Shading:Building]
   **   ~~~   **   This error occurred 2 times.
   **   ~~~   ** Figure being Overlapped=WALL11421, Surface Class=[Wall]
   *************
   ** Warning ** Too many figures [>=50000] in a shadow overlap
   **   ~~~   ** Overlapping figure=SHADINGB838W5864, Surface Class=[Detached Shading:Building]
   **   ~~~   **   This error occurred 3 times.
   **   ~~~   ** Figure being Overlapped=WALL11422, Surface Class=[Wall]
   **   ~~~   ** Figure being Overlapped=Mir-SHADINGB797R660, Surface Class=[Detached Shading:Building]
   *************
   ** Warning ** Too many figures [>=50000] in a shadow overlap
   **   ~~~   ** Overlapping figure=SHADINGB797W5791, Surface Class=[Detached Shading:Building]
   **   ~~~   **   This error occurred 4 times.
   **   ~~~   ** Figure being Overlapped=WALL3561, Surface Class=[Wall]
   **   ~~~   ** Figure being Overlapped=Mir-SHADINGB3923W9366, Surface Class=[Detached Shading:Building]
   **   ~~~   ** Figure being Overlapped=SHADINGB3923W9918, Surface Class=[Detached Shading:Building]
   *************
   ** Warning ** Too many figures [>=50000] in a shadow overlap
   **   ~~~   ** Overlapping figure=Mir-SHADINGB797W5791, Surface Class=[Detached Shading:Building]
   **   ~~~   **   This error occurred 3 times.
   **   ~~~   ** Figure being Overlapped=WALL11448, Surface Class=[Wall]
   **   ~~~   ** Figure being Overlapped=SHADINGB3923W9919, Surface Class=[Detached Shading:Building]
   *************
   ** Warning ** Too many figures [>=50000] in a shadow overlap
   **   ~~~   ** Overlapping figure=Mir-SHADINGB123W2770, Surface Class=[Detached Shading:Building]
   **   ~~~   **   This error occurred 1 times.
   **   ~~~   ** Figure being Overlapped=WALL3561, Surface Class=[Wall]
   *************
   ** Warning ** Too many figures [>=50000] in a shadow overlap
   **   ~~~   ** Overlapping figure=SHADINGB123W2284, Surface Class=[Detached Shading:Building]
   **   ~~~   **   This error occurred 2 times.
   **   ~~~   ** Figure being Overlapped=WALL11448, Surface Class=[Wall]
   **   ~~~   ** Figure being Overlapped=SHADINGB3923W9473, Surface Class=[Detached Shading:Building]
   *************
   ** Warning ** Too many figures [>=50000] in a shadow overlap
   **   ~~~   ** Overlapping figure=Mir-SHADINGB123W2766, Surface Class=[Detached Shading:Building]
   **   ~~~   **   This error occurred 1 times.
   **   ~~~   ** Figure being Overlapped=WALL11424, Surface Class=[Wall]
   *************
   ** Warning ** Too many figures [>=50000] in a shadow overlap
   **   ~~~   ** Overlapping figure=SHADINGB123W2765, Surface Class=[Detached Shading:Building]
   **   ~~~   **   This error occurred 1 times.
   **   ~~~   ** Figure being Overlapped=WALL11446, Surface Class=[Wall]
   *************
   ** Warning ** Too many figures [>=50000] in a shadow overlap
   **   ~~~   ** Overlapping figure=SHADINGB797W5573, Surface Class=[Detached Shading:Building]
   **   ~~~   **   This error occurred 1 times.
   **   ~~~   ** Figure being Overlapped=Mir-SHADINGB398W296, Surface Class=[Detached Shading:Building]
   *************
   ** Warning ** Too many figures [>=50000] in a shadow overlap
   **   ~~~   ** Overlapping figure=Mir-SHADINGB797W5573, Surface Class=[Detached Shading:Building]
   **   ~~~   **   This error occurred 1 times.
   **   ~~~   ** Figure being Overlapped=Mir-SHADINGB398W3307, Surface Class=[Detached Shading:Building]
   *************
   ** Warning ** Too many figures [>=50000] in a shadow overlap
   **   ~~~   ** Overlapping figure=SHADINGB797W5350, Surface Class=[Detached Shading:Building]
   **   ~~~   **   This error occurred 3 times.
   **   ~~~   ** Figure being Overlapped=Mir-SHADINGB398W3275, Surface Class=[Detached Shading:Building]
   **   ~~~   ** Figure being Overlapped=WALL11433, Surface Class=[Wall]
   *************
   ** Warning ** Too many figures [>=50000] in a shadow overlap
   **   ~~~   ** Overlapping figure=Mir-SHADINGB797W5350, Surface Class=[Detached Shading:Building]
   **   ~~~   **   This error occurred 3 times.
   **   ~~~   ** Figure being Overlapped=Mir-SHADINGB398W3304, Surface Class=[Detached Shading:Building]
   **   ~~~   ** Figure being Overlapped=WALL11434, Surface Class=[Wall]
   *************
   ** Warning ** Too many figures [>=50000] in a shadow overlap
   **   ~~~   ** Overlapping figure=SHADINGB123W2767, Surface Class=[Detached Shading:Building]
   **   ~~~   **   This error occurred 4 times.
   **   ~~~   ** Figure being Overlapped=WALL11421, Surface Class=[Wall]
   **   ~~~   ** Figure being Overlapped=Mir-SHADINGB3923W9489, Surface Class=[Detached Shading:Building]
   **   ~~~   ** Figure being Overlapped=SHADINGB3923W9417, Surface Class=[Detached Shading:Building]
   *************
   ** Warning ** Too many figures [>=50000] in a shadow overlap
   **   ~~~   ** Overlapping figure=Mir-SHADINGB123W2767, Surface Class=[Detached Shading:Building]
   **   ~~~   **   This error occurred 2 times.
   **   ~~~   ** Figure being Overlapped=WALL11422, Surface Class=[Wall]
   **   ~~~   ** Figure being Overlapped=SHADINGB3923W9414, Surface Class=[Detached Shading:Building]
   *************
   ** Warning ** Too many figures [>=50000] in a shadow overlap
   **   ~~~   ** Overlapping figure=Mir-SHADINGB123W2243, Surface Class=[Detached Shading:Building]
   **   ~~~   **   This error occurred 3 times.
   **   ~~~   ** Figure being Overlapped=SHADINGB3923W9473, Surface Class=[Detached Shading:Building]
   **   ~~~   ** Figure being Overlapped=Mir-SHADINGB398W2940, Surface Class=[Detached Shading:Building]
   **   ~~~   ** Figure being Overlapped=Mir-SHADINGB398W3198, Surface Class=[Detached Shading:Building]
   *************
   ** Warning ** Too many figures [>=50000] in a shadow overlap
   **   ~~~   ** Overlapping figure=SHADINGB123W2794, Surface Class=[Detached Shading:Building]
   **   ~~~   **   This error occurred 5 times.
   **   ~~~   ** Figure being Overlapped=SHADINGB3923W9476, Surface Class=[Detached Shading:Building]
   **   ~~~   ** Figure being Overlapped=Mir-SHADINGB398W2987, Surface Class=[Detached Shading:Building]
   **   ~~~   ** Figure being Overlapped=SHADINGB3923W9521, Surface Class=[Detached Shading:Building]
   **   ~~~   ** Figure being Overlapped=SHADINGB398W3046, Surface Class=[Detached Shading:Building]
   **   ~~~   ** Figure being Overlapped=Mir-SHADINGB398W3141, Surface Class=[Detached Shading:Building]
   *************
   ** Warning ** Too many figures [>=50000] in a shadow overlap
   **   ~~~   ** Overlapping figure=SHADINGB3545W11992, Surface Class=[Detached Shading:Building]
   **   ~~~   **   This error occurred 1 times.
   **   ~~~   ** Figure being Overlapped=Mir-SHADINGB3923W9437, Surface Class=[Detached Shading:Building]
   *************
   ** Warning ** Too many figures [>=50000] in a shadow overlap
   **   ~~~   ** Overlapping figure=Mir-SHADINGB3545W11992, Surface Class=[Detached Shading:Building]
   **   ~~~   **   This error occurred 2 times.
   **   ~~~   ** Figure being Overlapped=Mir-SHADINGB3923W9435, Surface Class=[Detached Shading:Building]
   **   ~~~   ** Figure being Overlapped=WALL11444, Surface Class=[Wall]
   *************
   ** Warning ** Too many figures [>=50000] in a shadow overlap
   **   ~~~   ** Overlapping figure=SHADINGB797W5670, Surface Class=[Detached Shading:Building]
   **   ~~~   **   This error occurred 4 times.
   **   ~~~   ** Figure being Overlapped=SHADINGB3923W9477, Surface Class=[Detached Shading:Building]
   **   ~~~   ** Figure being Overlapped=Mir-SHADINGB398W3306, Surface Class=[Detached Shading:Building]
   **   ~~~   ** Figure being Overlapped=SHADINGB398W3255, Surface Class=[Detached Shading:Building]
   *************
   ** Warning ** Too many figures [>=50000] in a shadow overlap
   **   ~~~   ** Overlapping figure=Mir-SHADINGB797W5668, Surface Class=[Detached Shading:Building]
   **   ~~~   **   This error occurred 6 times.
   **   ~~~   ** Figure being Overlapped=SHADINGB3923W9548, Surface Class=[Detached Shading:Building]
   **   ~~~   ** Figure being Overlapped=SHADINGB3923W9340, Surface Class=[Detached Shading:Building]
   **   ~~~   ** Figure being Overlapped=Mir-SHADINGB3923R3768, Surface Class=[Detached Shading:Building]
   **   ~~~   ** Figure being Overlapped=Mir-SHADINGB398W3200, Surface Class=[Detached Shading:Building]
   **   ~~~   ** Figure being Overlapped=Mir-SHADINGB398W3333, Surface Class=[Detached Shading:Building]
   *************
   ** Warning ** Too many figures [>=50000] in a shadow overlap
   **   ~~~   ** Overlapping figure=Mir-SHADINGB797W5765, Surface Class=[Detached Shading:Building]
   **   ~~~   **   This error occurred 1 times.
   **   ~~~   ** Figure being Overlapped=Mir-SHADINGB3923W9486, Surface Class=[Detached Shading:Building]
   *************
   ** Warning ** Too many figures [>=50000] in a shadow overlap
   **   ~~~   ** Overlapping figure=SHADINGB797W5408, Surface Class=[Detached Shading:Building]
   **   ~~~   **   This error occurred 3 times.
   **   ~~~   ** Figure being Overlapped=Mir-SHADINGB3923W9487, Surface Class=[Detached Shading:Building]
   **   ~~~   ** Figure being Overlapped=SHADINGB3923W9964, Surface Class=[Detached Shading:Building]
   *************
   ** Warning ** Too many figures [>=50000] in a shadow overlap
   **   ~~~   ** Overlapping figure=Mir-SHADINGB123W2284, Surface Class=[Detached Shading:Building]
   **   ~~~   **   This error occurred 2 times.
   **   ~~~   ** Figure being Overlapped=SHADINGB3923W9476, Surface Class=[Detached Shading:Building]
   **   ~~~   ** Figure being Overlapped=Mir-SHADINGB3923W9983, Surface Class=[Detached Shading:Building]
   *************
   ** Warning ** Too many figures [>=50000] in a shadow overlap
   **   ~~~   ** Overlapping figure=SHADINGB797W5585, Surface Class=[Detached Shading:Building]
   **   ~~~   **   This error occurred 3 times.
   **   ~~~   ** Figure being Overlapped=Mir-SHADINGB3923W9352, Surface Class=[Detached Shading:Building]
   **   ~~~   ** Figure being Overlapped=SHADINGB3923W9263, Surface Class=[Detached Shading:Building]
   **   ~~~   ** Figure being Overlapped=SHADINGB3923W10000, Surface Class=[Detached Shading:Building]
   *************
   ** Warning ** Too many figures [>=50000] in a shadow overlap
   **   ~~~   ** Overlapping figure=Mir-SHADINGB797W5585, Surface Class=[Detached Shading:Building]
   **   ~~~   **   This error occurred 3 times.
   **   ~~~   ** Figure being Overlapped=Mir-SHADINGB3923W9353, Surface Class=[Detached Shading:Building]
   **   ~~~   ** Figure being Overlapped=SHADINGB3923W9337, Surface Class=[Detached Shading:Building]
   **   ~~~   ** Figure being Overlapped=Mir-SHADINGB398W3274, Surface Class=[Detached Shading:Building]
   *************
   ** Warning ** Too many figures [>=50000] in a shadow overlap
   **   ~~~   ** Overlapping figure=Mir-SHADINGB797W705, Surface Class=[Detached Shading:Building]
   **   ~~~   **   This error occurred 2 times.
   **   ~~~   ** Figure being Overlapped=Mir-SHADINGB3923W9350, Surface Class=[Detached Shading:Building]
   **   ~~~   ** Figure being Overlapped=Mir-SHADINGB3923W9326, Surface Class=[Detached Shading:Building]
   *************
   ** Warning ** Too many figures [>=50000] in a shadow overlap
   **   ~~~   ** Overlapping figure=SHADINGB797W5555, Surface Class=[Detached Shading:Building]
   **   ~~~   **   This error occurred 3 times.
   **   ~~~   ** Figure being Overlapped=Mir-SHADINGB3923W9351, Surface Class=[Detached Shading:Building]
   **   ~~~   ** Figure being Overlapped=SHADINGB3923W9335, Surface Class=[Detached Shading:Building]
   **   ~~~   ** Figure being Overlapped=SHADINGB398W3548, Surface Class=[Detached Shading:Building]
   *************
   ** Warning ** Too many figures [>=50000] in a shadow overlap
   **   ~~~   ** Overlapping figure=SHADINGB123W2772, Surface Class=[Detached Shading:Building]
   **   ~~~   **   This error occurred 2 times.
   **   ~~~   ** Figure being Overlapped=SHADINGB3923W9477, Surface Class=[Detached Shading:Building]
   *************
   ** Warning ** Too many figures [>=50000] in a shadow overlap
   **   ~~~   ** Overlapping figure=Mir-SHADINGB123W2772, Surface Class=[Detached Shading:Building]
   **   ~~~   **   This error occurred 1 times.
   **   ~~~   ** Figure being Overlapped=Mir-SHADINGB3923W9530, Surface Class=[Detached Shading:Building]
   *************
   ** Warning ** Too many figures [>=50000] in a shadow overlap
   **   ~~~   ** Overlapping figure=Mir-SHADINGB797W5438, Surface Class=[Detached Shading:Building]
   **   ~~~   **   This error occurred 2 times.
   **   ~~~   ** Figure being Overlapped=SHADINGB3923W9574, Surface Class=[Detached Shading:Building]
   **   ~~~   ** Figure being Overlapped=Mir-SHADINGB3923W9982, Surface Class=[Detached Shading:Building]
   *************
   ** Warning ** Too many figures [>=50000] in a shadow overlap
   **   ~~~   ** Overlapping figure=SHADINGB797W5744, Surface Class=[Detached Shading:Building]
   **   ~~~   **   This error occurred 3 times.
   **   ~~~   ** Figure being Overlapped=SHADINGB3923W9573, Surface Class=[Detached Shading:Building]
   **   ~~~   ** Figure being Overlapped=Mir-SHADINGB3923W9981, Surface Class=[Detached Shading:Building]
   *************
   ** Warning ** Too many figures [>=50000] in a shadow overlap
   **   ~~~   ** Overlapping figure=Mir-SHADINGB797W5683, Surface Class=[Detached Shading:Building]
   **   ~~~   **   This error occurred 1 times.
   **   ~~~   ** Figure being Overlapped=SHADINGB3923W9571, Surface Class=[Detached Shading:Building]
   *************
   ** Warning ** Too many figures [>=50000] in a shadow overlap
   **   ~~~   ** Overlapping figure=SHADINGB3545W12005, Surface Class=[Detached Shading:Building]
   **   ~~~   **   This error occurred 4 times.
   **   ~~~   ** Figure being Overlapped=Mir-SHADINGB3566R3565, Surface Class=[Detached Shading:Building]
   **   ~~~   ** Figure being Overlapped=Mir-SHADINGB3923W9201, Surface Class=[Detached Shading:Building]
   **   ~~~   ** Figure being Overlapped=Mir-SHADINGB3923W9335, Surface Class=[Detached Shading:Building]
   **   ~~~   ** Figure being Overlapped=WALL11433, Surface Class=[Wall]
   *************
   ** Warning ** Too many figures [>=50000] in a shadow overlap
   **   ~~~   ** Overlapping figure=Mir-SHADINGB123W2690, Surface Class=[Detached Shading:Building]
   **   ~~~   **   This error occurred 3 times.
   **   ~~~   ** Figure being Overlapped=Mir-SHADINGB3923W9521, Surface Class=[Detached Shading:Building]
   **   ~~~   ** Figure being Overlapped=Mir-SHADINGB398W2987, Surface Class=[Detached Shading:Building]
   **   ~~~   ** Figure being Overlapped=Mir-SHADINGB398W3194, Surface Class=[Detached Shading:Building]
   *************
   ** Warning ** Too many figures [>=50000] in a shadow overlap
   **   ~~~   ** Overlapping figure=SHADINGB123W2204, Surface Class=[Detached Shading:Building]
   **   ~~~   **   This error occurred 3 times.
   **   ~~~   ** Figure being Overlapped=Mir-SHADINGB3923W9522, Surface Class=[Detached Shading:Building]
   **   ~~~   ** Figure being Overlapped=SHADINGB3923W9548, Surface Class=[Detached Shading:Building]
   *************
   ** Warning ** Too many figures [>=50000] in a shadow overlap
   **   ~~~   ** Overlapping figure=Mir-SHADINGB123W2729, Surface Class=[Detached Shading:Building]
   **   ~~~   **   This error occurred 3 times.
   **   ~~~   ** Figure being Overlapped=Mir-SHADINGB3923W9521, Surface Class=[Detached Shading:Building]
   **   ~~~   ** Figure being Overlapped=SHADINGB398W3204, Surface Class=[Detached Shading:Building]
   **   ~~~   ** Figure being Overlapped=Mir-SHADINGB398W3282, Surface Class=[Detached Shading:Building]
   *************
   ** Warning ** Too many figures [>=50000] in a shadow overlap
   **   ~~~   ** Overlapping figure=SHADINGB123W2730, Surface Class=[Detached Shading:Building]
   **   ~~~   **   This error occurred 4 times.
   **   ~~~   ** Figure being Overlapped=Mir-SHADINGB3923W9522, Surface Class=[Detached Shading:Building]
   **   ~~~   ** Figure being Overlapped=SHADINGB398W253, Surface Class=[Detached Shading:Building]
   **   ~~~   ** Figure being Overlapped=Mir-SHADINGB3923W9521, Surface Class=[Detached Shading:Building]
   *************
   ** Warning ** Too many figures [>=50000] in a shadow overlap
   **   ~~~   ** Overlapping figure=SHADINGB123W2357, Surface Class=[Detached Shading:Building]
   **   ~~~   **   This error occurred 1 times.
   **   ~~~   ** Figure being Overlapped=Mir-SHADINGB3923W9518, Surface Class=[Detached Shading:Building]
   *************
   ** Warning ** Too many figures [>=50000] in a shadow overlap
   **   ~~~   ** Overlapping figure=Mir-SHADINGB123W2357, Surface Class=[Detached Shading:Building]
   **   ~~~   **   This error occurred 2 times.
   **   ~~~   ** Figure being Overlapped=Mir-SHADINGB3923W9522, Surface Class=[Detached Shading:Building]
   **   ~~~   ** Figure being Overlapped=Mir-SHADINGB398W2934, Surface Class=[Detached Shading:Building]
   *************
   ** Warning ** Too many figures [>=50000] in a shadow overlap
   **   ~~~   ** Overlapping figure=SHADINGB797W5491, Surface Class=[Detached Shading:Building]
   **   ~~~   **   This error occurred 3 times.
   **   ~~~   ** Figure being Overlapped=Mir-SHADINGB3923W9491, Surface Class=[Detached Shading:Building]
   **   ~~~   ** Figure being Overlapped=Mir-SHADINGB3923W9545, Surface Class=[Detached Shading:Building]
   *************
   ** Warning ** Too many figures [>=50000] in a shadow overlap
   **   ~~~   ** Overlapping figure=SHADINGB797W5351, Surface Class=[Detached Shading:Building]
   **   ~~~   **   This error occurred 1 times.
   **   ~~~   ** Figure being Overlapped=SHADINGB3923W9474, Surface Class=[Detached Shading:Building]
   *************
   ** Warning ** Too many figures [>=50000] in a shadow overlap
   **   ~~~   ** Overlapping figure=SHADINGB797W5600, Surface Class=[Detached Shading:Building]
   **   ~~~   **   This error occurred 5 times.
   **   ~~~   ** Figure being Overlapped=SHADINGB3923W9474, Surface Class=[Detached Shading:Building]
   **   ~~~   ** Figure being Overlapped=SHADINGB3923W9401, Surface Class=[Detached Shading:Building]
   **   ~~~   ** Figure being Overlapped=Mir-SHADINGB3923W9261, Surface Class=[Detached Shading:Building]
   **   ~~~   ** Figure being Overlapped=WALL3561, Surface Class=[Wall]
   *************
   ** Warning ** Too many figures [>=50000] in a shadow overlap
   **   ~~~   ** Overlapping figure=Mir-SHADINGB797W5600, Surface Class=[Detached Shading:Building]
   **   ~~~   **   This error occurred 7 times.
   **   ~~~   ** Figure being Overlapped=SHADINGB3923W9473, Surface Class=[Detached Shading:Building]
   **   ~~~   ** Figure being Overlapped=Mir-SHADINGB3923W9546, Surface Class=[Detached Shading:Building]
   **   ~~~   ** Figure being Overlapped=SHADINGB398W3495, Surface Class=[Detached Shading:Building]
   **   ~~~   ** Figure being Overlapped=Mir-SHADINGB3923W9262, Surface Class=[Detached Shading:Building]
   **   ~~~   ** Figure being Overlapped=WALL11448, Surface Class=[Wall]
   **   ~~~   ** Figure being Overlapped=SHADINGB398W3521, Surface Class=[Detached Shading:Building]
   *************
   ** Warning ** Too many figures [>=50000] in a shadow overlap
   **   ~~~   ** Overlapping figure=SHADINGB123W2281, Surface Class=[Detached Shading:Building]
   **   ~~~   **   This error occurred 3 times.
   **   ~~~   ** Figure being Overlapped=Mir-SHADINGB3923W9520, Surface Class=[Detached Shading:Building]
   **   ~~~   ** Figure being Overlapped=SHADINGB3923W9561, Surface Class=[Detached Shading:Building]
   **   ~~~   ** Figure being Overlapped=SHADINGB398W3046, Surface Class=[Detached Shading:Building]
   *************
   ** Warning ** Too many figures [>=50000] in a shadow overlap
   **   ~~~   ** Overlapping figure=Mir-SHADINGB123W2281, Surface Class=[Detached Shading:Building]
   **   ~~~   **   This error occurred 4 times.
   **   ~~~   ** Figure being Overlapped=Mir-SHADINGB3923W9530, Surface Class=[Detached Shading:Building]
   **   ~~~   ** Figure being Overlapped=SHADINGB3923W9557, Surface Class=[Detached Shading:Building]
   **   ~~~   ** Figure being Overlapped=Mir-SHADINGB398W3272, Surface Class=[Detached Shading:Building]
   **   ~~~   ** Figure being Overlapped=SHADINGB398W3521, Surface Class=[Detached Shading:Building]
   *************
   ** Warning ** Too many figures [>=50000] in a shadow overlap
   **   ~~~   ** Overlapping figure=Mir-SHADINGB838W5866, Surface Class=[Detached Shading:Building]
   **   ~~~   **   This error occurred 4 times.
   **   ~~~   ** Figure being Overlapped=Mir-SHADINGB3923W9460, Surface Class=[Detached Shading:Building]
   **   ~~~   ** Figure being Overlapped=Mir-SHADINGB3923W9520, Surface Class=[Detached Shading:Building]
   **   ~~~   ** Figure being Overlapped=Mir-SHADINGB3923W9335, Surface Class=[Detached Shading:Building]
   **   ~~~   ** Figure being Overlapped=SHADINGB3923W9335, Surface Class=[Detached Shading:Building]
   *************
   ** Warning ** Too many figures [>=50000] in a shadow overlap
   **   ~~~   ** Overlapping figure=SHADINGB838W5865, Surface Class=[Detached Shading:Building]
   **   ~~~   **   This error occurred 6 times.
   **   ~~~   ** Figure being Overlapped=SHADINGB3923W9452, Surface Class=[Detached Shading:Building]
   **   ~~~   ** Figure being Overlapped=Mir-SHADINGB3923W9336, Surface Class=[Detached Shading:Building]
   **   ~~~   ** Figure being Overlapped=Mir-SHADINGB797R649, Surface Class=[Detached Shading:Building]
   **   ~~~   ** Figure being Overlapped=SHADINGB3923W9336, Surface Class=[Detached Shading:Building]
   *************
   ** Warning ** Too many figures [>=50000] in a shadow overlap
   **   ~~~   ** Overlapping figure=SHADINGB797W5646, Surface Class=[Detached Shading:Building]
   **   ~~~   **   This error occurred 3 times.
   **   ~~~   ** Figure being Overlapped=Mir-SHADINGB3923W9367, Surface Class=[Detached Shading:Building]
   **   ~~~   ** Figure being Overlapped=Mir-SHADINGB398W3301, Surface Class=[Detached Shading:Building]
   **   ~~~   ** Figure being Overlapped=SHADINGB398W3204, Surface Class=[Detached Shading:Building]
   *************
   ** Warning ** Too many figures [>=50000] in a shadow overlap
   **   ~~~   ** Overlapping figure=Mir-SHADINGB797W5646, Surface Class=[Detached Shading:Building]
   **   ~~~   **   This error occurred 1 times.
   **   ~~~   ** Figure being Overlapped=Mir-SHADINGB3923W9370, Surface Class=[Detached Shading:Building]
   *************
   ** Warning ** Too many figures [>=50000] in a shadow overlap
   **   ~~~   ** Overlapping figure=SHADINGB838W5910, Surface Class=[Detached Shading:Building]
   **   ~~~   **   This error occurred 3 times.
   **   ~~~   ** Figure being Overlapped=Mir-SHADINGB3923W9383, Surface Class=[Detached Shading:Building]
   **   ~~~   ** Figure being Overlapped=Mir-SHADINGB3923W9488, Surface Class=[Detached Shading:Building]
   **   ~~~   ** Figure being Overlapped=SHADINGB3923W9548, Surface Class=[Detached Shading:Building]
   *************
   ** Warning ** Too many figures [>=50000] in a shadow overlap
   **   ~~~   ** Overlapping figure=Mir-SHADINGB838W5910, Surface Class=[Detached Shading:Building]
   **   ~~~   **   This error occurred 2 times.
   **   ~~~   ** Figure being Overlapped=Mir-SHADINGB3923W9384, Surface Class=[Detached Shading:Building]
   **   ~~~   ** Figure being Overlapped=Mir-SHADINGB3923W9489, Surface Class=[Detached Shading:Building]
   *************
   ** Warning ** Too many figures [>=50000] in a shadow overlap
   **   ~~~   ** Overlapping figure=SHADINGB3545W12004, Surface Class=[Detached Shading:Building]
   **   ~~~   **   This error occurred 1 times.
   **   ~~~   ** Figure being Overlapped=SHADINGB3923W9399, Surface Class=[Detached Shading:Building]
   *************
   ** Warning ** Too many figures [>=50000] in a shadow overlap
   **   ~~~   ** Overlapping figure=Mir-SHADINGB3545W12004, Surface Class=[Detached Shading:Building]
   **   ~~~   **   This error occurred 1 times.
   **   ~~~   ** Figure being Overlapped=SHADINGB3923W9389, Surface Class=[Detached Shading:Building]
   *************
   ** Warning ** Too many figures [>=50000] in a shadow overlap
   **   ~~~   ** Overlapping figure=SHADINGB838W5846, Surface Class=[Detached Shading:Building]
   **   ~~~   **   This error occurred 2 times.
   **   ~~~   ** Figure being Overlapped=Mir-SHADINGB3923W9201, Surface Class=[Detached Shading:Building]
   **   ~~~   ** Figure being Overlapped=WALL11447, Surface Class=[Wall]
   *************
   ** Warning ** Too many figures [>=50000] in a shadow overlap
   **   ~~~   ** Overlapping figure=Mir-SHADINGB838W5846, Surface Class=[Detached Shading:Building]
   **   ~~~   **   This error occurred 4 times.
   **   ~~~   ** Figure being Overlapped=Mir-SHADINGB3923W9214, Surface Class=[Detached Shading:Building]
   **   ~~~   ** Figure being Overlapped=SHADINGB3923W9351, Surface Class=[Detached Shading:Building]
   **   ~~~   ** Figure being Overlapped=Mir-SHADINGB3923W9545, Surface Class=[Detached Shading:Building]
   **   ~~~   ** Figure being Overlapped=SHADINGB3923W9478, Surface Class=[Detached Shading:Building]
   *************
   ** Warning ** Too many figures [>=50000] in a shadow overlap
   **   ~~~   ** Overlapping figure=Mir-SHADINGB797W5777, Surface Class=[Detached Shading:Building]
   **   ~~~   **   This error occurred 1 times.
   **   ~~~   ** Figure being Overlapped=Mir-SHADINGB3923W9351, Surface Class=[Detached Shading:Building]
   *************
   ** Warning ** Too many figures [>=50000] in a shadow overlap
   **   ~~~   ** Overlapping figure=SHADINGB797W5778, Surface Class=[Detached Shading:Building]
   **   ~~~   **   This error occurred 1 times.
   **   ~~~   ** Figure being Overlapped=Mir-SHADINGB3923W9352, Surface Class=[Detached Shading:Building]
   *************
   ** Warning ** Too many figures [>=50000] in a shadow overlap
   **   ~~~   ** Overlapping figure=Mir-SHADINGB797W5599, Surface Class=[Detached Shading:Building]
   **   ~~~   **   This error occurred 4 times.
   **   ~~~   ** Figure being Overlapped=SHADINGB3923W9644, Surface Class=[Detached Shading:Building]
   **   ~~~   ** Figure being Overlapped=Mir-SHADINGB3923W9545, Surface Class=[Detached Shading:Building]
   **   ~~~   ** Figure being Overlapped=SHADINGB398W3166, Surface Class=[Detached Shading:Building]
   *************
   ** Warning ** Too many figures [>=50000] in a shadow overlap
   **   ~~~   ** Overlapping figure=SHADINGB797W5625, Surface Class=[Detached Shading:Building]
   **   ~~~   **   This error occurred 3 times.
   **   ~~~   ** Figure being Overlapped=SHADINGB3923W9643, Surface Class=[Detached Shading:Building]
   **   ~~~   ** Figure being Overlapped=SHADINGB3923W9585, Surface Class=[Detached Shading:Building]
   *************
   ** Warning ** Too many figures [>=50000] in a shadow overlap
   **   ~~~   ** Overlapping figure=Mir-SHADINGB797W5496, Surface Class=[Detached Shading:Building]
   **   ~~~   **   This error occurred 3 times.
   **   ~~~   ** Figure being Overlapped=SHADINGB3923W9446, Surface Class=[Detached Shading:Building]
   **   ~~~   ** Figure being Overlapped=Mir-SHADINGB3923W9545, Surface Class=[Detached Shading:Building]
   **   ~~~   ** Figure being Overlapped=SHADINGB398W3498, Surface Class=[Detached Shading:Building]
   *************
   ** Warning ** Too many figures [>=50000] in a shadow overlap
   **   ~~~   ** Overlapping figure=SHADINGB797W5495, Surface Class=[Detached Shading:Building]
   **   ~~~   **   This error occurred 2 times.
   **   ~~~   ** Figure being Overlapped=Mir-SHADINGB3923W9437, Surface Class=[Detached Shading:Building]
   **   ~~~   ** Figure being Overlapped=SHADINGB398W3495, Surface Class=[Detached Shading:Building]
   *************
   ** Warning ** Too many figures [>=50000] in a shadow overlap
   **   ~~~   ** Overlapping figure=SHADINGB797W5455, Surface Class=[Detached Shading:Building]
   **   ~~~   **   This error occurred 4 times.
   **   ~~~   ** Figure being Overlapped=SHADINGB3923W9446, Surface Class=[Detached Shading:Building]
   **   ~~~   ** Figure being Overlapped=Mir-SHADINGB3923W9204, Surface Class=[Detached Shading:Building]
   **   ~~~   ** Figure being Overlapped=Mir-SHADINGB3923W9436, Surface Class=[Detached Shading:Building]
   *************
   ** Warning ** Too many figures [>=50000] in a shadow overlap
   **   ~~~   ** Overlapping figure=Mir-SHADINGB797W5455, Surface Class=[Detached Shading:Building]
   **   ~~~   **   This error occurred 4 times.
   **   ~~~   ** Figure being Overlapped=Mir-SHADINGB3923W9437, Surface Class=[Detached Shading:Building]
   **   ~~~   ** Figure being Overlapped=Mir-SHADINGB3923W9486, Surface Class=[Detached Shading:Building]
   **   ~~~   ** Figure being Overlapped=Mir-SHADINGB3923W9206, Surface Class=[Detached Shading:Building]
   *************
   ** Warning ** Too many figures [>=50000] in a shadow overlap
   **   ~~~   ** Overlapping figure=SHADINGB797W5599, Surface Class=[Detached Shading:Building]
   **   ~~~   **   This error occurred 3 times.
   **   ~~~   ** Figure being Overlapped=Mir-SHADINGB3923W9545, Surface Class=[Detached Shading:Building]
   **   ~~~   ** Figure being Overlapped=Mir-SHADINGB398W3192, Surface Class=[Detached Shading:Building]
   **   ~~~   ** Figure being Overlapped=SHADINGB398W3496, Surface Class=[Detached Shading:Building]
   *************
   ** Warning ** Too many figures [>=50000] in a shadow overlap
   **   ~~~   ** Overlapping figure=SHADINGB797W5512, Surface Class=[Detached Shading:Building]
   **   ~~~   **   This error occurred 1 times.
   **   ~~~   ** Figure being Overlapped=Mir-SHADINGB3923W9548, Surface Class=[Detached Shading:Building]
   *************
   ** Warning ** Too many figures [>=50000] in a shadow overlap
   **   ~~~   ** Overlapping figure=Mir-SHADINGB797W5512, Surface Class=[Detached Shading:Building]
   **   ~~~   **   This error occurred 2 times.
   **   ~~~   ** Figure being Overlapped=SHADINGB3923W9559, Surface Class=[Detached Shading:Building]
   **   ~~~   ** Figure being Overlapped=SHADINGB3923W9920, Surface Class=[Detached Shading:Building]
   *************
   ** Warning ** Too many figures [>=50000] in a shadow overlap
   **   ~~~   ** Overlapping figure=Mir-SHADINGB123W2283, Surface Class=[Detached Shading:Building]
   **   ~~~   **   This error occurred 2 times.
   **   ~~~   ** Figure being Overlapped=Mir-SHADINGB3923W9545, Surface Class=[Detached Shading:Building]
   *************
   ** Warning ** Too many figures [>=50000] in a shadow overlap
   **   ~~~   ** Overlapping figure=SHADINGB123W2286, Surface Class=[Detached Shading:Building]
   **   ~~~   **   This error occurred 2 times.
   **   ~~~   ** Figure being Overlapped=SHADINGB3923W9585, Surface Class=[Detached Shading:Building]
   **   ~~~   ** Figure being Overlapped=SHADINGB398W3521, Surface Class=[Detached Shading:Building]
   *************
   ** Warning ** Too many figures [>=50000] in a shadow overlap
   **   ~~~   ** Overlapping figure=SHADINGB797W5551, Surface Class=[Detached Shading:Building]
   **   ~~~   **   This error occurred 3 times.
   **   ~~~   ** Figure being Overlapped=SHADINGB3923W9340, Surface Class=[Detached Shading:Building]
   **   ~~~   ** Figure being Overlapped=Mir-SHADINGB3923W9477, Surface Class=[Detached Shading:Building]
   **   ~~~   ** Figure being Overlapped=SHADINGB398W3196, Surface Class=[Detached Shading:Building]
   *************
   ** Warning ** Too many figures [>=50000] in a shadow overlap
   **   ~~~   ** Overlapping figure=Mir-SHADINGB797W5551, Surface Class=[Detached Shading:Building]
   **   ~~~   **   This error occurred 2 times.
   **   ~~~   ** Figure being Overlapped=SHADINGB3923W9341, Surface Class=[Detached Shading:Building]
   **   ~~~   ** Figure being Overlapped=SHADINGB3923W9517, Surface Class=[Detached Shading:Building]
   *************
   ** Warning ** Too many figures [>=50000] in a shadow overlap
   **   ~~~   ** Overlapping figure=Mir-SHADINGB797W5663, Surface Class=[Detached Shading:Building]
   **   ~~~   **   This error occurred 5 times.
   **   ~~~   ** Figure being Overlapped=SHADINGB3923W9340, Surface Class=[Detached Shading:Building]
   **   ~~~   ** Figure being Overlapped=Mir-SHADINGB3923R3779, Surface Class=[Detached Shading:Building]
   **   ~~~   ** Figure being Overlapped=SHADINGB3923W3659, Surface Class=[Detached Shading:Building]
   *************
   ** Warning ** Too many figures [>=50000] in a shadow overlap
   **   ~~~   ** Overlapping figure=SHADINGB797W5663, Surface Class=[Detached Shading:Building]
   **   ~~~   **   This error occurred 5 times.
   **   ~~~   ** Figure being Overlapped=SHADINGB3923W9339, Surface Class=[Detached Shading:Building]
   **   ~~~   ** Figure being Overlapped=Mir-SHADINGB3923W9477, Surface Class=[Detached Shading:Building]
   **   ~~~   ** Figure being Overlapped=Mir-SHADINGB3923W9641, Surface Class=[Detached Shading:Building]
   **   ~~~   ** Figure being Overlapped=Mir-SHADINGB3923W9987, Surface Class=[Detached Shading:Building]
   *************
   ** Warning ** Too many figures [>=50000] in a shadow overlap
   **   ~~~   ** Overlapping figure=SHADINGB797W5493, Surface Class=[Detached Shading:Building]
   **   ~~~   **   This error occurred 2 times.
   **   ~~~   ** Figure being Overlapped=Mir-SHADINGB3923R3669, Surface Class=[Detached Shading:Building]
   **   ~~~   ** Figure being Overlapped=Mir-SHADINGB3923W9987, Surface Class=[Detached Shading:Building]
   *************
   ** Warning ** Too many figures [>=50000] in a shadow overlap
   **   ~~~   ** Overlapping figure=Mir-SHADINGB797W5493, Surface Class=[Detached Shading:Building]
   **   ~~~   **   This error occurred 1 times.
   **   ~~~   ** Figure being Overlapped=Mir-SHADINGB3923R3580, Surface Class=[Detached Shading:Building]
   *************
   ** Warning ** Too many figures [>=50000] in a shadow overlap
   **   ~~~   ** Overlapping figure=Mir-SHADINGB797W5473, Surface Class=[Detached Shading:Building]
   **   ~~~   **   This error occurred 2 times.
   **   ~~~   ** Figure being Overlapped=Mir-SHADINGB3923W9201, Surface Class=[Detached Shading:Building]
   **   ~~~   ** Figure being Overlapped=Mir-SHADINGB3923W9474, Surface Class=[Detached Shading:Building]
   *************
   ** Warning ** Too many figures [>=50000] in a shadow overlap
   **   ~~~   ** Overlapping figure=SHADINGB797W5712, Surface Class=[Detached Shading:Building]
   **   ~~~   **   This error occurred 2 times.
   **   ~~~   ** Figure being Overlapped=Mir-SHADINGB3923W9214, Surface Class=[Detached Shading:Building]
   **   ~~~   ** Figure being Overlapped=SHADINGB3923W9446, Surface Class=[Detached Shading:Building]
   *************
   ** Warning ** Too many figures [>=50000] in a shadow overlap
   **   ~~~   ** Overlapping figure=SHADINGB797W5373, Surface Class=[Detached Shading:Building]
   **   ~~~   **   This error occurred 3 times.
   **   ~~~   ** Figure being Overlapped=SHADINGB3923W9341, Surface Class=[Detached Shading:Building]
   **   ~~~   ** Figure being Overlapped=Mir-SHADINGB3923R3722, Surface Class=[Detached Shading:Building]
   **   ~~~   ** Figure being Overlapped=Mir-SHADINGB398W3331, Surface Class=[Detached Shading:Building]
   *************
   ** Warning ** Too many figures [>=50000] in a shadow overlap
   **   ~~~   ** Overlapping figure=SHADINGB797W5734, Surface Class=[Detached Shading:Building]
   **   ~~~   **   This error occurred 6 times.
   **   ~~~   ** Figure being Overlapped=SHADINGB3923W9414, Surface Class=[Detached Shading:Building]
   **   ~~~   ** Figure being Overlapped=SHADINGB3923W9476, Surface Class=[Detached Shading:Building]
   **   ~~~   ** Figure being Overlapped=SHADINGB398W3200, Surface Class=[Detached Shading:Building]
   **   ~~~   ** Figure being Overlapped=Mir-SHADINGB3923W9987, Surface Class=[Detached Shading:Building]
   *************
   ** Warning ** Too many figures [>=50000] in a shadow overlap
   **   ~~~   ** Overlapping figure=Mir-SHADINGB797W5471, Surface Class=[Detached Shading:Building]
   **   ~~~   **   This error occurred 5 times.
   **   ~~~   ** Figure being Overlapped=Mir-SHADINGB3923W9210, Surface Class=[Detached Shading:Building]
   **   ~~~   ** Figure being Overlapped=Mir-SHADINGB398R277, Surface Class=[Detached Shading:Building]
   *************
   ** Warning ** Too many figures [>=50000] in a shadow overlap
   **   ~~~   ** Overlapping figure=SHADINGB797W5472, Surface Class=[Detached Shading:Building]
   **   ~~~   **   This error occurred 4 times.
   **   ~~~   ** Figure being Overlapped=Mir-SHADINGB3923W9209, Surface Class=[Detached Shading:Building]
   *************
   ** Warning ** Too many figures [>=50000] in a shadow overlap
   **   ~~~   ** Overlapping figure=Mir-SHADINGB838W5835, Surface Class=[Detached Shading:Building]
   **   ~~~   **   This error occurred 3 times.
   **   ~~~   ** Figure being Overlapped=Mir-SHADINGB3923W9201, Surface Class=[Detached Shading:Building]
   **   ~~~   ** Figure being Overlapped=Mir-SHADINGB3923W9477, Surface Class=[Detached Shading:Building]
   **   ~~~   ** Figure being Overlapped=SHADINGB3923W9341, Surface Class=[Detached Shading:Building]
   *************
   ** Warning ** Too many figures [>=50000] in a shadow overlap
   **   ~~~   ** Overlapping figure=SHADINGB838W5836, Surface Class=[Detached Shading:Building]
   **   ~~~   **   This error occurred 1 times.
   **   ~~~   ** Figure being Overlapped=Mir-SHADINGB3923W9214, Surface Class=[Detached Shading:Building]
   *************
   ** Warning ** Too many figures [>=50000] in a shadow overlap
   **   ~~~   ** Overlapping figure=SHADINGB838W5880, Surface Class=[Detached Shading:Building]
   **   ~~~   **   This error occurred 2 times.
   **   ~~~   ** Figure being Overlapped=Mir-SHADINGB3923R3722, Surface Class=[Detached Shading:Building]
   **   ~~~   ** Figure being Overlapped=Mir-SHADINGB3923W9588, Surface Class=[Detached Shading:Building]
   *************
   ** Warning ** Too many figures [>=50000] in a shadow overlap
   **   ~~~   ** Overlapping figure=Mir-SHADINGB3545W12029, Surface Class=[Detached Shading:Building]
   **   ~~~   **   This error occurred 5 times.
   **   ~~~   ** Figure being Overlapped=Mir-SHADINGB3923W9323, Surface Class=[Detached Shading:Building]
   **   ~~~   ** Figure being Overlapped=SHADINGB3923W9215, Surface Class=[Detached Shading:Building]
   **   ~~~   ** Figure being Overlapped=SHADINGB3923W9548, Surface Class=[Detached Shading:Building]
   **   ~~~   ** Figure being Overlapped=SHADINGB3923W9257, Surface Class=[Detached Shading:Building]
   *************
   ** Warning ** Too many figures [>=50000] in a shadow overlap
   **   ~~~   ** Overlapping figure=SHADINGB3545W11965, Surface Class=[Detached Shading:Building]
   **   ~~~   **   This error occurred 3 times.
   **   ~~~   ** Figure being Overlapped=Mir-SHADINGB3923W9324, Surface Class=[Detached Shading:Building]
   **   ~~~   ** Figure being Overlapped=SHADINGB3923W9219, Surface Class=[Detached Shading:Building]
   *************
   ** Warning ** Too many figures [>=50000] in a shadow overlap
   **   ~~~   ** Overlapping figure=SHADINGB838W5814, Surface Class=[Detached Shading:Building]
   **   ~~~   **   This error occurred 1 times.
   **   ~~~   ** Figure being Overlapped=Mir-SHADINGB3923W9545, Surface Class=[Detached Shading:Building]
   *************
   ** Warning ** Too many figures [>=50000] in a shadow overlap
   **   ~~~   ** Overlapping figure=Mir-SHADINGB838W5814, Surface Class=[Detached Shading:Building]
   **   ~~~   **   This error occurred 1 times.
   **   ~~~   ** Figure being Overlapped=SHADINGB3923W9585, Surface Class=[Detached Shading:Building]
   *************
   ** Warning ** Too many figures [>=50000] in a shadow overlap
   **   ~~~   ** Overlapping figure=SHADINGB123W2411, Surface Class=[Detached Shading:Building]
   **   ~~~   **   This error occurred 2 times.
   **   ~~~   ** Figure being Overlapped=Mir-SHADINGB3923R3669, Surface Class=[Detached Shading:Building]
   **   ~~~   ** Figure being Overlapped=Mir-SHADINGB398W3198, Surface Class=[Detached Shading:Building]
   *************
   ** Warning ** Too many figures [>=50000] in a shadow overlap
   **   ~~~   ** Overlapping figure=Mir-SHADINGB123W2411, Surface Class=[Detached Shading:Building]
   **   ~~~   **   This error occurred 1 times.
   **   ~~~   ** Figure being Overlapped=Mir-SHADINGB3923R3580, Surface Class=[Detached Shading:Building]
   *************
   ** Warning ** Too many figures [>=50000] in a shadow overlap
   **   ~~~   ** Overlapping figure=SHADINGB797W5456, Surface Class=[Detached Shading:Building]
   **   ~~~   **   This error occurred 3 times.
   **   ~~~   ** Figure being Overlapped=Mir-SHADINGB3923W9522, Surface Class=[Detached Shading:Building]
[...]
   *************
   ** Warning ** Too many figures [>=50000] in a shadow overlap
   **   ~~~   ** Overlapping figure=Mir-SHADINGB797W5612, Surface Class=[Detached Shading:Building]
   **   ~~~   **   This error occurred 1 times.
   **   ~~~   ** Figure being Overlapped=SHADINGB3923W9419, Surface Class=[Detached Shading:Building]
   *************
   ** Warning ** Too many figures [>=50000] in a shadow overlap
   **   ~~~   ** Overlapping figure=SHADINGB797W5377, Surface Class=[Detached Shading:Building]
   **   ~~~   **   This error occurred 1 times.
   **   ~~~   ** Figure being Overlapped=SHADINGB3923W9340, Surface Class=[Detached Shading:Building]
   *************
   ** Warning ** Too many figures [>=50000] in a shadow overlap
   **   ~~~   ** Overlapping figure=Mir-SHADINGB838W5860, Surface Class=[Detached Shading:Building]
   **   ~~~   **   This error occurred 1 times.
   **   ~~~   ** Figure being Overlapped=SHADINGB3923W9338, Surface Class=[Detached Shading:Building]
   *************
   ** Warning ** Too many figures [>=50000] in a shadow overlap
   **   ~~~   ** Overlapping figure=Mir-SHADINGB797W5792, Surface Class=[Detached Shading:Building]
   **   ~~~   **   This error occurred 1 times.
   **   ~~~   ** Figure being Overlapped=SHADINGB3923W9338, Surface Class=[Detached Shading:Building]
   *************
   ** Warning ** Too many figures [>=50000] in a shadow overlap
   **   ~~~   ** Overlapping figure=Mir-SHADINGB797W5472, Surface Class=[Detached Shading:Building]
   **   ~~~   **   This error occurred 1 times.
   **   ~~~   ** Figure being Overlapped=Mir-SHADINGB3923W9204, Surface Class=[Detached Shading:Building]
   *************
   ** Warning ** Too many figures [>=50000] in a shadow overlap
   **   ~~~   ** Overlapping figure=SHADINGB123W2210, Surface Class=[Detached Shading:Building]
   **   ~~~   **   This error occurred 2 times.
   **   ~~~   ** Figure being Overlapped=SHADINGB398W3347, Surface Class=[Detached Shading:Building]
   **   ~~~   ** Figure being Overlapped=Mir-SHADINGB398W3282, Surface Class=[Detached Shading:Building]
   *************
   ** Warning ** Too many figures [>=50000] in a shadow overlap
   **   ~~~   ** Overlapping figure=Mir-SHADINGB123W2210, Surface Class=[Detached Shading:Building]
   **   ~~~   **   This error occurred 2 times.
   **   ~~~   ** Figure being Overlapped=SHADINGB398W3351, Surface Class=[Detached Shading:Building]
   **   ~~~   ** Figure being Overlapped=Mir-SHADINGB398W3280, Surface Class=[Detached Shading:Building]
   *************
   ** Warning ** Too many figures [>=50000] in a shadow overlap
   **   ~~~   ** Overlapping figure=Mir-SHADINGB123W2753, Surface Class=[Detached Shading:Building]
   **   ~~~   **   This error occurred 1 times.
   **   ~~~   ** Figure being Overlapped=SHADINGB398W3349, Surface Class=[Detached Shading:Building]
   *************
   ** Warning ** Too many figures [>=50000] in a shadow overlap
   **   ~~~   ** Overlapping figure=Mir-SHADINGB797W5598, Surface Class=[Detached Shading:Building]
   **   ~~~   **   This error occurred 1 times.
   **   ~~~   ** Figure being Overlapped=SHADINGB398W3346, Surface Class=[Detached Shading:Building]
   *************
   ** Warning ** Too many figures [>=50000] in a shadow overlap
   **   ~~~   ** Overlapping figure=Mir-SHADINGB797W5613, Surface Class=[Detached Shading:Building]
   **   ~~~   **   This error occurred 2 times.
   **   ~~~   ** Figure being Overlapped=WALL11421, Surface Class=[Wall]
   *************
   ** Warning ** Too many figures [>=50000] in a shadow overlap
   **   ~~~   ** Overlapping figure=SHADINGB797W5406, Surface Class=[Detached Shading:Building]
   **   ~~~   **   This error occurred 1 times.
   **   ~~~   ** Figure being Overlapped=Mir-SHADINGB3923W9987, Surface Class=[Detached Shading:Building]
   *************
   ** Warning ** Too many figures [>=50000] in a shadow overlap
   **   ~~~   ** Overlapping figure=SHADINGB797W5511, Surface Class=[Detached Shading:Building]
   **   ~~~   **   This error occurred 2 times.
   **   ~~~   ** Figure being Overlapped=SHADINGB3923W10000, Surface Class=[Detached Shading:Building]
   **   ~~~   ** Figure being Overlapped=SHADINGB3923W9560, Surface Class=[Detached Shading:Building]
   *************
   ** Warning ** Too many figures [>=50000] in a shadow overlap
   **   ~~~   ** Overlapping figure=SHADINGB123W2364, Surface Class=[Detached Shading:Building]
   **   ~~~   **   This error occurred 2 times.
   **   ~~~   ** Figure being Overlapped=Mir-SHADINGB398W3280, Surface Class=[Detached Shading:Building]
   *************
   ** Warning ** Too many figures [>=50000] in a shadow overlap
   **   ~~~   ** Overlapping figure=SHADINGB123W2363, Surface Class=[Detached Shading:Building]
   **   ~~~   **   This error occurred 2 times.
   **   ~~~   ** Figure being Overlapped=Mir-SHADINGB398W257, Surface Class=[Detached Shading:Building]
   *************
   ** Warning ** Too many figures [>=50000] in a shadow overlap
   **   ~~~   ** Overlapping figure=Mir-SHADINGB123W2752, Surface Class=[Detached Shading:Building]
   **   ~~~   **   This error occurred 1 times.
   **   ~~~   ** Figure being Overlapped=Mir-SHADINGB398W3274, Surface Class=[Detached Shading:Building]
   *************
   ** Warning ** Too many figures [>=50000] in a shadow overlap
   **   ~~~   ** Overlapping figure=SHADINGB123W2684, Surface Class=[Detached Shading:Building]
   **   ~~~   **   This error occurred 2 times.
   **   ~~~   ** Figure being Overlapped=Mir-SHADINGB398W3275, Surface Class=[Detached Shading:Building]
   *************
   ** Warning ** Too many figures [>=50000] in a shadow overlap
   **   ~~~   ** Overlapping figure=SHADINGB123W2243, Surface Class=[Detached Shading:Building]
   **   ~~~   **   This error occurred 1 times.
   **   ~~~   ** Figure being Overlapped=Mir-SHADINGB398W3204, Surface Class=[Detached Shading:Building]
   *************
   ** Warning ** Too many figures [>=50000] in a shadow overlap
   **   ~~~   ** Overlapping figure=Mir-SHADINGB123W2418, Surface Class=[Detached Shading:Building]
   **   ~~~   **   This error occurred 1 times.
   **   ~~~   ** Figure being Overlapped=Mir-SHADINGB398W3204, Surface Class=[Detached Shading:Building]
   *************
   ** Warning ** Too many figures [>=50000] in a shadow overlap
   **   ~~~   ** Overlapping figure=SHADINGB797W5570, Surface Class=[Detached Shading:Building]
   **   ~~~   **   This error occurred 1 times.
   **   ~~~   ** Figure being Overlapped=Mir-SHADINGB398W3202, Surface Class=[Detached Shading:Building]
   *************
   ** Warning ** Too many figures [>=50000] in a shadow overlap
   **   ~~~   ** Overlapping figure=Mir-SHADINGB838W5876, Surface Class=[Detached Shading:Building]
   **   ~~~   **   This error occurred 1 times.
   **   ~~~   ** Figure being Overlapped=Mir-SHADINGB3923W9519, Surface Class=[Detached Shading:Building]
   *************
   ** Warning ** Too many figures [>=50000] in a shadow overlap
   **   ~~~   ** Overlapping figure=SHADINGB797W5761, Surface Class=[Detached Shading:Building]
   **   ~~~   **   This error occurred 1 times.
   **   ~~~   ** Figure being Overlapped=SHADINGB3923W9477, Surface Class=[Detached Shading:Building]
   *************
   ** Warning ** Too many figures [>=50000] in a shadow overlap
   **   ~~~   ** Overlapping figure=SHADINGB797W5390, Surface Class=[Detached Shading:Building]
   **   ~~~   **   This error occurred 1 times.
   **   ~~~   ** Figure being Overlapped=SHADINGB3923W9547, Surface Class=[Detached Shading:Building]
   *************
   ** Warning ** Too many figures [>=50000] in a shadow overlap
   **   ~~~   ** Overlapping figure=Mir-SHADINGB123W2773, Surface Class=[Detached Shading:Building]
   **   ~~~   **   This error occurred 1 times.
   **   ~~~   ** Figure being Overlapped=SHADINGB3923W9475, Surface Class=[Detached Shading:Building]
   *************
   ** Warning ** Too many figures [>=50000] in a shadow overlap
   **   ~~~   ** Overlapping figure=Mir-SHADINGB123W2208, Surface Class=[Detached Shading:Building]
   **   ~~~   **   This error occurred 1 times.
   **   ~~~   ** Figure being Overlapped=SHADINGB3923W9474, Surface Class=[Detached Shading:Building]
   *************
   ** Warning ** Too many figures [>=50000] in a shadow overlap
   **   ~~~   ** Overlapping figure=SHADINGB123W2686, Surface Class=[Detached Shading:Building]
   **   ~~~   **   This error occurred 1 times.
   **   ~~~   ** Figure being Overlapped=SHADINGB3923W9476, Surface Class=[Detached Shading:Building]
   *************
   ** Warning ** Too many figures [>=50000] in a shadow overlap
   **   ~~~   ** Overlapping figure=Mir-SHADINGB123W2723, Surface Class=[Detached Shading:Building]
   **   ~~~   **   This error occurred 2 times.
   **   ~~~   ** Figure being Overlapped=Mir-SHADINGB3923W9533, Surface Class=[Detached Shading:Building]
   **   ~~~   ** Figure being Overlapped=Mir-SHADINGB398W3275, Surface Class=[Detached Shading:Building]
   *************
   ** Warning ** Too many figures [>=50000] in a shadow overlap
   **   ~~~   ** Overlapping figure=SHADINGB123W2724, Surface Class=[Detached Shading:Building]
   **   ~~~   **   This error occurred 1 times.
   **   ~~~   ** Figure being Overlapped=Mir-SHADINGB3923W9544, Surface Class=[Detached Shading:Building]
   *************
   ** Warning ** Too many figures [>=50000] in a shadow overlap
   **   ~~~   ** Overlapping figure=Mir-SHADINGB123W2237, Surface Class=[Detached Shading:Building]
   **   ~~~   **   This error occurred 1 times.
   **   ~~~   ** Figure being Overlapped=SHADINGB3923W9402, Surface Class=[Detached Shading:Building]
   *************
   ** Warning ** Too many figures [>=50000] in a shadow overlap
   **   ~~~   ** Overlapping figure=Mir-SHADINGB123W2238, Surface Class=[Detached Shading:Building]
   **   ~~~   **   This error occurred 1 times.
   **   ~~~   ** Figure being Overlapped=SHADINGB3923W9401, Surface Class=[Detached Shading:Building]
   *************
   ** Warning ** Too many figures [>=50000] in a shadow overlap
   **   ~~~   ** Overlapping figure=Mir-SHADINGB797W5467, Surface Class=[Detached Shading:Building]
   **   ~~~   **   This error occurred 1 times.
   **   ~~~   ** Figure being Overlapped=Mir-SHADINGB3923W9487, Surface Class=[Detached Shading:Building]
   *************
   ** Warning ** Too many figures [>=50000] in a shadow overlap
   **   ~~~   ** Overlapping figure=SHADINGB797W5711, Surface Class=[Detached Shading:Building]
   **   ~~~   **   This error occurred 1 times.
   **   ~~~   ** Figure being Overlapped=Mir-SHADINGB3923W9488, Surface Class=[Detached Shading:Building]
   *************
   ** Warning ** Too many figures [>=50000] in a shadow overlap
   **   ~~~   ** Overlapping figure=SHADINGB797W5374, Surface Class=[Detached Shading:Building]
   **   ~~~   **   This error occurred 1 times.
   **   ~~~   ** Figure being Overlapped=Mir-SHADINGB3923W9380, Surface Class=[Detached Shading:Building]
   *************
   ** Warning ** Too many figures [>=50000] in a shadow overlap
   **   ~~~   ** Overlapping figure=SHADINGB797W5392, Surface Class=[Detached Shading:Building]
   **   ~~~   **   This error occurred 1 times.
   **   ~~~   ** Figure being Overlapped=SHADINGB3923W9559, Surface Class=[Detached Shading:Building]
   *************
   ** Warning ** Too many figures [>=50000] in a shadow overlap
   **   ~~~   ** Overlapping figure=SHADINGB398W3166, Surface Class=[Detached Shading:Building]
   **   ~~~   **   This error occurred 1 times.
   **   ~~~   ** Figure being Overlapped=Mir-SHADINGB3923W9547, Surface Class=[Detached Shading:Building]
   *************
   ** Warning ** Too many figures [>=50000] in a shadow overlap
   **   ~~~   ** Overlapping figure=Mir-SHADINGB398W3166, Surface Class=[Detached Shading:Building]
   **   ~~~   **   This error occurred 1 times.
   **   ~~~   ** Figure being Overlapped=Mir-SHADINGB3923W9548, Surface Class=[Detached Shading:Building]
   *************
   ** Warning ** Too many figures [>=50000] in a shadow overlap
   **   ~~~   ** Overlapping figure=Mir-SHADINGB797W5468, Surface Class=[Detached Shading:Building]
   **   ~~~   **   This error occurred 1 times.
   **   ~~~   ** Figure being Overlapped=Mir-SHADINGB3923W9215, Surface Class=[Detached Shading:Building]
   *************
   ** Warning ** Too many figures [>=50000] in a shadow overlap
   **   ~~~   ** Overlapping figure=SHADINGB797W5469, Surface Class=[Detached Shading:Building]
   **   ~~~   **   This error occurred 1 times.
   **   ~~~   ** Figure being Overlapped=Mir-SHADINGB3923W9219, Surface Class=[Detached Shading:Building]
   *************
   ** Warning ** Too many figures [>=50000] in a shadow overlap
   **   ~~~   ** Overlapping figure=SHADINGB123W2790, Surface Class=[Detached Shading:Building]
   **   ~~~   **   This error occurred 1 times.
   **   ~~~   ** Figure being Overlapped=Mir-SHADINGB3923W9383, Surface Class=[Detached Shading:Building]
   *************
   ** Warning ** Too many figures [>=50000] in a shadow overlap
   **   ~~~   ** Overlapping figure=Mir-SHADINGB797W783, Surface Class=[Detached Shading:Building]
   **   ~~~   **   This error occurred 1 times.
   **   ~~~   ** Figure being Overlapped=WALL11433, Surface Class=[Wall]
   *************
   ** Warning ** Too many figures [>=50000] in a shadow overlap
   **   ~~~   ** Overlapping figure=SHADINGB797W781, Surface Class=[Detached Shading:Building]
   **   ~~~   **   This error occurred 1 times.
   **   ~~~   ** Figure being Overlapped=WALL11434, Surface Class=[Wall]
   *************
   ** Warning ** Too many figures [>=50000] in a shadow overlap
   **   ~~~   ** Overlapping figure=Mir-SHADINGB398W3173, Surface Class=[Detached Shading:Building]
   **   ~~~   **   This error occurred 1 times.
   **   ~~~   ** Figure being Overlapped=WALL11422, Surface Class=[Wall]
   *************
   ** Warning ** Too many figures [>=50000] in a shadow overlap
   **   ~~~   ** Overlapping figure=Mir-SHADINGB797W5610, Surface Class=[Detached Shading:Building]
   **   ~~~   **   This error occurred 1 times.
   **   ~~~   ** Figure being Overlapped=Mir-SHADINGB3923W9987, Surface Class=[Detached Shading:Building]
   *************
   ** Warning ** Too many figures [>=50000] in a shadow overlap
   **   ~~~   ** Overlapping figure=SHADINGB797W5682, Surface Class=[Detached Shading:Building]
   **   ~~~   **   This error occurred 1 times.
   **   ~~~   ** Figure being Overlapped=Mir-SHADINGB3923W9982, Surface Class=[Detached Shading:Building]
   *************
   ** Warning ** Too many figures [>=50000] in a shadow overlap
   **   ~~~   ** Overlapping figure=Mir-SHADINGB797W5682, Surface Class=[Detached Shading:Building]
   **   ~~~   **   This error occurred 1 times.
   **   ~~~   ** Figure being Overlapped=Mir-SHADINGB3923W9981, Surface Class=[Detached Shading:Building]
   *************
   ** Warning ** Too many figures [>=50000] in a shadow overlap
   **   ~~~   ** Overlapping figure=SHADINGB3545W12006, Surface Class=[Detached Shading:Building]
   **   ~~~   **   This error occurred 1 times.
   **   ~~~   ** Figure being Overlapped=Mir-SHADINGB3923W9980, Surface Class=[Detached Shading:Building]
   *************
   ** Warning ** Too many figures [>=50000] in a shadow overlap
   **   ~~~   ** Overlapping figure=Mir-SHADINGB3545W12006, Surface Class=[Detached Shading:Building]
   **   ~~~   **   This error occurred 1 times.
   **   ~~~   ** Figure being Overlapped=Mir-SHADINGB3923W9982, Surface Class=[Detached Shading:Building]
   *************
   ** Warning ** Too many figures [>=50000] in a shadow overlap
   **   ~~~   ** Overlapping figure=SHADINGB123W2769, Surface Class=[Detached Shading:Building]
   **   ~~~   **   This error occurred 2 times.
   **   ~~~   ** Figure being Overlapped=Mir-SHADINGB3923W9986, Surface Class=[Detached Shading:Building]
   **   ~~~   ** Figure being Overlapped=Mir-SHADINGB398W3276, Surface Class=[Detached Shading:Building]
   *************
   ** Warning ** Too many figures [>=50000] in a shadow overlap
   **   ~~~   ** Overlapping figure=SHADINGB123W2186, Surface Class=[Detached Shading:Building]
   **   ~~~   **   This error occurred 1 times.
   **   ~~~   ** Figure being Overlapped=SHADINGB398W311, Surface Class=[Detached Shading:Building]
   *************
   ** Warning ** Too many figures [>=50000] in a shadow overlap
   **   ~~~   ** Overlapping figure=SHADINGB123W2290, Surface Class=[Detached Shading:Building]
   **   ~~~   **   This error occurred 1 times.
   **   ~~~   ** Figure being Overlapped=Mir-SHADINGB398W257, Surface Class=[Detached Shading:Building]
   *************
   ** Warning ** Too many figures [>=50000] in a shadow overlap
   **   ~~~   ** Overlapping figure=Mir-SHADINGB123W2724, Surface Class=[Detached Shading:Building]
   **   ~~~   **   This error occurred 1 times.
   **   ~~~   ** Figure being Overlapped=SHADINGB398W3048, Surface Class=[Detached Shading:Building]
   *************
   ** Warning ** Too many figures [>=50000] in a shadow overlap
   **   ~~~   ** Overlapping figure=Mir-SHADINGB123W2186, Surface Class=[Detached Shading:Building]
   **   ~~~   **   This error occurred 1 times.
   **   ~~~   ** Figure being Overlapped=SHADINGB398W3526, Surface Class=[Detached Shading:Building]
   *************
   ** Warning ** Too many figures [>=50000] in a shadow overlap
   **   ~~~   ** Overlapping figure=SHADINGB838W5819, Surface Class=[Detached Shading:Building]
   **   ~~~   **   This error occurred 1 times.
   **   ~~~   ** Figure being Overlapped=SHADINGB3923W9477, Surface Class=[Detached Shading:Building]
   *************
   ** Warning ** Too many figures [>=50000] in a shadow overlap
   **   ~~~   ** Overlapping figure=Mir-SHADINGB838W5819, Surface Class=[Detached Shading:Building]
   **   ~~~   **   This error occurred 1 times.
   **   ~~~   ** Figure being Overlapped=Mir-SHADINGB3923W9517, Surface Class=[Detached Shading:Building]
   *************
   ** Warning ** Too many figures [>=50000] in a shadow overlap
   **   ~~~   ** Overlapping figure=Mir-SHADINGB838W5930, Surface Class=[Detached Shading:Building]
   **   ~~~   **   This error occurred 1 times.
   **   ~~~   ** Figure being Overlapped=Mir-SHADINGB3923W9490, Surface Class=[Detached Shading:Building]
   *************
   ** Warning ** Too many figures [>=50000] in a shadow overlap
   **   ~~~   ** Overlapping figure=SHADINGB838W5926, Surface Class=[Detached Shading:Building]
   **   ~~~   **   This error occurred 1 times.
   **   ~~~   ** Figure being Overlapped=Mir-SHADINGB3923W9491, Surface Class=[Detached Shading:Building]
   *************
   ** Warning ** Too many figures [>=50000] in a shadow overlap
   **   ~~~   ** Overlapping figure=Mir-SHADINGB123W2187, Surface Class=[Detached Shading:Building]
   **   ~~~   **   This error occurred 1 times.
   **   ~~~   ** Figure being Overlapped=SHADINGB398W257, Surface Class=[Detached Shading:Building]
   *************
   ** Warning ** Too many figures [>=50000] in a shadow overlap
   **   ~~~   ** Overlapping figure=SHADINGB797W5513, Surface Class=[Detached Shading:Building]
   **   ~~~   **   This error occurred 1 times.
   **   ~~~   ** Figure being Overlapped=WALL11444, Surface Class=[Wall]
   *************
   ** Warning ** Too many figures [>=50000] in a shadow overlap
   **   ~~~   ** Overlapping figure=SHADINGB123W2728, Surface Class=[Detached Shading:Building]
   **   ~~~   **   This error occurred 1 times.
   **   ~~~   ** Figure being Overlapped=SHADINGB3923W9476, Surface Class=[Detached Shading:Building]
   *************
   **   ~~~   **   The too many figures errors occurred 1485 times (total).
   *************
   ************* EnergyPlus Warmup Error Summary. During Warmup: 0 Warning; 0 Severe Errors.
   ************* EnergyPlus Sizing Error Summary. During Sizing: 6 Warning; 0 Severe Errors.
   ************* EnergyPlus Completed Successfully-- 1572 Warning; 8 Severe Errors; Elapsed Time=00hr 59min 29.28sec
